/*---------------------------------------------------------------------------*\
| =========                 |                                                 |
| \\      /  F ield         | OpenFOAM: The Open Source CFD Toolbox           |
|  \\    /   O peration     | Version:  4.1                                   |
|   \\  /    A nd           | Web:      www.OpenFOAM.org                      |
|    \\/     M anipulation  |                                                 |
\*---------------------------------------------------------------------------*/
Build  : 4.1
Exec   : QGDFoam
Date   : Dec 25 2017
Time   : 21:23:59
Host   : "bl010.unicluster.ru"
PID    : 10266
Case   : /lustre/unicluster/home/matvey.kraposhin/run/Unicfdlab/QGD-sdev4.1/Tutorials/1D/Test2
nProcs : 1
sigFpe : Enabling floating point exception trapping (FOAM_SIGFPE).
fileModificationChecking : Monitoring run-time modified files using timeStampMaster
allowSystemOperations : Allowing user-supplied system call operations

// * * * * * * * * * * * * * * * * * * * * * * * * * * * * * * * * * * * * * //
Create time

Create mesh for time = 0

Reading thermophysical properties

Selecting thermodynamics package 
{
    type            hePsiQGDThermo;
    mixture         pureMixture;
    transport       const;
    thermo          hConst;
    equationOfState perfectGas;
    specie          specie;
    energy          sensibleInternalEnergy;
}

Selecting QGD coeffs evaluation approach type constScPrModel1QGDCoeffs
Thermo corrected
Creating turbulence model

Selecting turbulence model type laminar
Selecting finite volume surface calculus stencil type leastSquares
Start findNeighbours()
End findNeighbours()
Start calculateWeights()
Min determinant      : 2
Total # of deg. faces: 0
End for not parallel
End calculateWeights()
Set "degenerateStencilFaces" with faces for reduced approximation QGD terms not found

Starting time loop

Courant Number = 0.000879476
deltaT = 1.2e-07
Time = 1.2e-07

diagonal:  Solving for rho, Initial residual = 0, Final residual = 0, No Iterations 0
diagonal:  Solving for rhoUx, Initial residual = 0, Final residual = 0, No Iterations 0
smoothSolver:  Solving for Ux, Initial residual = 4.16873e-08, Final residual = 1.94808e-17, No Iterations 1
diagonal:  Solving for rhoE, Initial residual = 0, Final residual = 0, No Iterations 0
smoothSolver:  Solving for e, Initial residual = 2.56192e-05, Final residual = 3.00663e-11, No Iterations 1
ExecutionTime = 0.11 s  ClockTime = 0 s

max/min T:    1.00089/0.999939
max/min p:    0.400447/0.399646
max/min rho:  1.00018/0.998944
max/min U:    (2 0 0)/(-2 0 0)
Courant Number = 0.00105537
deltaT = 1.44e-07
Time = 2.64e-07

diagonal:  Solving for rho, Initial residual = 0, Final residual = 0, No Iterations 0
diagonal:  Solving for rhoUx, Initial residual = 0, Final residual = 0, No Iterations 0
smoothSolver:  Solving for Ux, Initial residual = 4.99563e-08, Final residual = 2.73972e-17, No Iterations 1
diagonal:  Solving for rhoE, Initial residual = 0, Final residual = 0, No Iterations 0
smoothSolver:  Solving for e, Initial residual = 3.07032e-05, Final residual = 4.00256e-12, No Iterations 1
ExecutionTime = 0.12 s  ClockTime = 0 s

max/min T:    1.00195/0.999865
max/min p:    0.400982/0.399223
max/min rho:  1.00045/0.997747
max/min U:    (2 0 0)/(-2 0 0)
Courant Number = 0.00126644
deltaT = 1.728e-07
Time = 4.36799e-07

diagonal:  Solving for rho, Initial residual = 0, Final residual = 0, No Iterations 0
diagonal:  Solving for rhoUx, Initial residual = 0, Final residual = 0, No Iterations 0
smoothSolver:  Solving for Ux, Initial residual = 5.98516e-08, Final residual = 3.03517e-17, No Iterations 1
diagonal:  Solving for rhoE, Initial residual = 0, Final residual = 0, No Iterations 0
smoothSolver:  Solving for e, Initial residual = 3.67902e-05, Final residual = 4.82423e-12, No Iterations 1
ExecutionTime = 0.12 s  ClockTime = 0 s

max/min T:    1.00321/0.999777
max/min p:    0.401622/0.398716
max/min rho:  1.00078/0.996314
max/min U:    (2 0 0)/(-2 0 0)
Courant Number = 0.00151973
deltaT = 2.07359e-07
Time = 6.44158e-07

diagonal:  Solving for rho, Initial residual = 0, Final residual = 0, No Iterations 0
diagonal:  Solving for rhoUx, Initial residual = 0, Final residual = 0, No Iterations 0
smoothSolver:  Solving for Ux, Initial residual = 7.16838e-08, Final residual = 3.95795e-17, No Iterations 1
diagonal:  Solving for rhoE, Initial residual = 0, Final residual = 0, No Iterations 0
smoothSolver:  Solving for e, Initial residual = 4.40709e-05, Final residual = 3.8321e-12, No Iterations 1
ExecutionTime = 0.13 s  ClockTime = 0 s

max/min T:    1.00472/0.999672
max/min p:    0.402386/0.398111
max/min rho:  1.00118/0.9946
max/min U:    (2 0 0)/(-2 0 0)
Courant Number = 0.00182367
deltaT = 2.4883e-07
Time = 8.92988e-07

diagonal:  Solving for rho, Initial residual = 0, Final residual = 0, No Iterations 0
diagonal:  Solving for rhoUx, Initial residual = 0, Final residual = 0, No Iterations 0
smoothSolver:  Solving for Ux, Initial residual = 8.58225e-08, Final residual = 4.27558e-17, No Iterations 1
diagonal:  Solving for rhoE, Initial residual = 0, Final residual = 0, No Iterations 0
smoothSolver:  Solving for e, Initial residual = 5.27741e-05, Final residual = 2.19726e-12, No Iterations 1
ExecutionTime = 0.13 s  ClockTime = 0 s

max/min T:    1.00653/0.999546
max/min p:    0.403299/0.397388
max/min rho:  1.00165/0.992552
max/min U:    (2 0 0)/(-2 0 0)
Courant Number = 0.0021884
deltaT = 2.98595e-07
Time = 1.19158e-06

diagonal:  Solving for rho, Initial residual = 0, Final residual = 0, No Iterations 0
diagonal:  Solving for rhoUx, Initial residual = 0, Final residual = 0, No Iterations 0
smoothSolver:  Solving for Ux, Initial residual = 1.02703e-07, Final residual = 1.74688e-17, No Iterations 1
diagonal:  Solving for rhoE, Initial residual = 0, Final residual = 0, No Iterations 0
smoothSolver:  Solving for e, Initial residual = 6.31697e-05, Final residual = 1.19623e-12, No Iterations 1
ExecutionTime = 0.14 s  ClockTime = 0 s

max/min T:    1.00868/0.999397
max/min p:    0.404386/0.396525
max/min rho:  1.00221/0.990104
max/min U:    (2 0 0)/(-2 0 0)
Courant Number = 0.00262607
deltaT = 3.58312e-07
Time = 1.54989e-06

diagonal:  Solving for rho, Initial residual = 0, Final residual = 0, No Iterations 0
diagonal:  Solving for rhoUx, Initial residual = 0, Final residual = 0, No Iterations 0
smoothSolver:  Solving for Ux, Initial residual = 1.22835e-07, Final residual = 3.42888e-17, No Iterations 1
diagonal:  Solving for rhoE, Initial residual = 0, Final residual = 0, No Iterations 0
smoothSolver:  Solving for e, Initial residual = 7.55753e-05, Final residual = 1.64079e-12, No Iterations 1
ExecutionTime = 0.14 s  ClockTime = 0 s

max/min T:    1.01124/0.999219
max/min p:    0.405682/0.395496
max/min rho:  1.00288/0.987183
max/min U:    (2 0 0)/(-2 0 0)
Courant Number = 0.00315126
deltaT = 4.29972e-07
Time = 1.97987e-06

diagonal:  Solving for rho, Initial residual = 0, Final residual = 0, No Iterations 0
diagonal:  Solving for rhoUx, Initial residual = 0, Final residual = 0, No Iterations 0
smoothSolver:  Solving for Ux, Initial residual = 1.46818e-07, Final residual = 2.56073e-17, No Iterations 1
diagonal:  Solving for rhoE, Initial residual = 0, Final residual = 0, No Iterations 0
smoothSolver:  Solving for e, Initial residual = 9.03634e-05, Final residual = 1.32888e-12, No Iterations 1
ExecutionTime = 0.15 s  ClockTime = 0 s

max/min T:    1.01427/0.999007
max/min p:    0.407222/0.394271
max/min rho:  1.00367/0.983701
max/min U:    (2 0 0)/(-2 0 0)
Courant Number = 0.0037815
deltaT = 5.15965e-07
Time = 2.49583e-06

diagonal:  Solving for rho, Initial residual = 0, Final residual = 0, No Iterations 0
diagonal:  Solving for rhoUx, Initial residual = 0, Final residual = 0, No Iterations 0
smoothSolver:  Solving for Ux, Initial residual = 1.75345e-07, Final residual = 1.89046e-17, No Iterations 1
diagonal:  Solving for rhoE, Initial residual = 0, Final residual = 0, No Iterations 0
smoothSolver:  Solving for e, Initial residual = 0.000107968, Final residual = 5.06184e-13, No Iterations 1
ExecutionTime = 0.15 s  ClockTime = 0 s

max/min T:    1.01788/0.998756
max/min p:    0.40905/0.392815
max/min rho:  1.00461/0.979555
max/min U:    (2 0 0)/(-2 0 0)
Courant Number = 0.00453778
deltaT = 6.19156e-07
Time = 3.11499e-06

diagonal:  Solving for rho, Initial residual = 0, Final residual = 0, No Iterations 0
diagonal:  Solving for rhoUx, Initial residual = 0, Final residual = 0, No Iterations 0
smoothSolver:  Solving for Ux, Initial residual = 2.09218e-07, Final residual = 2.16474e-17, No Iterations 1
diagonal:  Solving for rhoE, Initial residual = 0, Final residual = 0, No Iterations 0
smoothSolver:  Solving for e, Initial residual = 0.000128894, Final residual = 5.94262e-13, No Iterations 1
ExecutionTime = 0.16 s  ClockTime = 0 s

max/min T:    1.02213/0.998459
max/min p:    0.411215/0.391087
max/min rho:  1.00572/0.974626
max/min U:    (2 0 0)/(-2 0 0)
Courant Number = 0.00544533
deltaT = 7.42984e-07
Time = 3.85797e-06

diagonal:  Solving for rho, Initial residual = 0, Final residual = 0, No Iterations 0
diagonal:  Solving for rhoUx, Initial residual = 0, Final residual = 0, No Iterations 0
smoothSolver:  Solving for Ux, Initial residual = 2.49353e-07, Final residual = 2.61088e-17, No Iterations 1
diagonal:  Solving for rhoE, Initial residual = 0, Final residual = 0, No Iterations 0
smoothSolver:  Solving for e, Initial residual = 0.000153719, Final residual = 6.13482e-13, No Iterations 1
ExecutionTime = 0.16 s  ClockTime = 0 s

max/min T:    1.02716/0.99811
max/min p:    0.413773/0.389042
max/min rho:  1.00702/0.968777
max/min U:    (2 0 0)/(-2 0 0)
Courant Number = 0.00653436
deltaT = 8.91578e-07
Time = 4.74955e-06

diagonal:  Solving for rho, Initial residual = 0, Final residual = 0, No Iterations 0
diagonal:  Solving for rhoUx, Initial residual = 0, Final residual = 0, No Iterations 0
smoothSolver:  Solving for Ux, Initial residual = 2.96789e-07, Final residual = 3.16093e-17, No Iterations 1
diagonal:  Solving for rhoE, Initial residual = 0, Final residual = 0, No Iterations 0
smoothSolver:  Solving for e, Initial residual = 0.000183105, Final residual = 5.97415e-13, No Iterations 1
ExecutionTime = 0.17 s  ClockTime = 0 s

max/min T:    1.03306/0.997699
max/min p:    0.416784/0.386627
max/min rho:  1.00855/0.961852
max/min U:    (2 0 0)/(-2 0 0)
Courant Number = 0.00784121
deltaT = 1.06987e-06
Time = 5.81942e-06

diagonal:  Solving for rho, Initial residual = 0, Final residual = 0, No Iterations 0
diagonal:  Solving for rhoUx, Initial residual = 0, Final residual = 0, No Iterations 0
smoothSolver:  Solving for Ux, Initial residual = 3.52677e-07, Final residual = 2.04748e-17, No Iterations 1
diagonal:  Solving for rhoE, Initial residual = 0, Final residual = 0, No Iterations 0
smoothSolver:  Solving for e, Initial residual = 0.000217793, Final residual = 2.6911e-13, No Iterations 1
ExecutionTime = 0.18 s  ClockTime = 0 s

max/min T:    1.03998/0.997218
max/min p:    0.420317/0.383783
max/min rho:  1.01034/0.953675
max/min U:    (2 0 0)/(-2 0 0)
Courant Number = 0.00940929
deltaT = 1.28384e-06
Time = 7.10327e-06

diagonal:  Solving for rho, Initial residual = 0, Final residual = 0, No Iterations 0
diagonal:  Solving for rhoUx, Initial residual = 0, Final residual = 0, No Iterations 0
smoothSolver:  Solving for Ux, Initial residual = 4.18292e-07, Final residual = 3.03147e-17, No Iterations 1
diagonal:  Solving for rhoE, Initial residual = 0, Final residual = 0, No Iterations 0
smoothSolver:  Solving for e, Initial residual = 0.000258617, Final residual = 3.37337e-13, No Iterations 1
ExecutionTime = 0.18 s  ClockTime = 0 s

max/min T:    1.04803/0.996661
max/min p:    0.424442/0.380448
max/min rho:  1.01241/0.94405
max/min U:    (2 0 0)/(-2 0 0)
Courant Number = 0.0112911
deltaT = 1.54057e-06
Time = 8.64383e-06

diagonal:  Solving for rho, Initial residual = 0, Final residual = 0, No Iterations 0
diagonal:  Solving for rhoUx, Initial residual = 0, Final residual = 0, No Iterations 0
smoothSolver:  Solving for Ux, Initial residual = 4.94971e-07, Final residual = 3.64897e-17, No Iterations 1
diagonal:  Solving for rhoE, Initial residual = 0, Final residual = 0, No Iterations 0
smoothSolver:  Solving for e, Initial residual = 0.000306469, Final residual = 3.64116e-13, No Iterations 1
ExecutionTime = 0.19 s  ClockTime = 0 s

max/min T:    1.05737/0.996019
max/min p:    0.429234/0.376552
max/min rho:  1.0148/0.932764
max/min U:    (2 0 0)/(-2 0 0)
Courant Number = 0.0135489
deltaT = 1.84866e-06
Time = 1.04925e-05

diagonal:  Solving for rho, Initial residual = 0, Final residual = 0, No Iterations 0
diagonal:  Solving for rhoUx, Initial residual = 0, Final residual = 0, No Iterations 0
smoothSolver:  Solving for Ux, Initial residual = 5.84129e-07, Final residual = 3.26789e-17, No Iterations 1
diagonal:  Solving for rhoE, Initial residual = 0, Final residual = 0, No Iterations 0
smoothSolver:  Solving for e, Initial residual = 0.000362323, Final residual = 3.68884e-13, No Iterations 1
ExecutionTime = 0.19 s  ClockTime = 0 s

max/min T:    1.06813/0.995289
max/min p:    0.434765/0.372024
max/min rho:  1.01753/0.91959
max/min U:    (2 0 0)/(-2 0 0)
Courant Number = 0.0162585
deltaT = 2.21831e-06
Time = 1.27108e-05

diagonal:  Solving for rho, Initial residual = 0, Final residual = 0, No Iterations 0
diagonal:  Solving for rhoUx, Initial residual = 0, Final residual = 0, No Iterations 0
smoothSolver:  Solving for Ux, Initial residual = 6.87111e-07, Final residual = 2.09421e-17, No Iterations 1
diagonal:  Solving for rhoE, Initial residual = 0, Final residual = 0, No Iterations 0
smoothSolver:  Solving for e, Initial residual = 0.000427158, Final residual = 1.44564e-13, No Iterations 1
ExecutionTime = 0.2 s  ClockTime = 0 s

max/min T:    1.08042/0.994468
max/min p:    0.441099/0.366793
max/min rho:  1.0206/0.904295
max/min U:    (2 0 0)/(-2 0 0)
Courant Number = 0.0195095
deltaT = 2.66187e-06
Time = 1.53727e-05

diagonal:  Solving for rho, Initial residual = 0, Final residual = 0, No Iterations 0
diagonal:  Solving for rhoUx, Initial residual = 0, Final residual = 0, No Iterations 0
smoothSolver:  Solving for Ux, Initial residual = 8.05166e-07, Final residual = 3.09582e-17, No Iterations 1
diagonal:  Solving for rhoE, Initial residual = 0, Final residual = 0, No Iterations 0
smoothSolver:  Solving for e, Initial residual = 0.000501971, Final residual = 1.85652e-13, No Iterations 1
ExecutionTime = 0.2 s  ClockTime = 0 s

max/min T:    1.09436/0.993563
max/min p:    0.448287/0.360788
max/min rho:  1.02403/0.886652
max/min U:    (2 0 0)/(-2 0 0)
Courant Number = 0.0234105
deltaT = 3.19411e-06
Time = 1.85668e-05

diagonal:  Solving for rho, Initial residual = 0, Final residual = 0, No Iterations 0
diagonal:  Solving for rhoUx, Initial residual = 0, Final residual = 0, No Iterations 0
smoothSolver:  Solving for Ux, Initial residual = 9.39244e-07, Final residual = 3.12158e-17, No Iterations 1
diagonal:  Solving for rhoE, Initial residual = 0, Final residual = 0, No Iterations 0
smoothSolver:  Solving for e, Initial residual = 0.00058768, Final residual = 2.01344e-13, No Iterations 1
ExecutionTime = 0.21 s  ClockTime = 0 s

max/min T:    1.11/0.99259
max/min p:    0.456353/0.35395
max/min rho:  1.02776/0.866456
max/min U:    (2 0 0)/(-2 0 0)
Courant Number = 0.0280914
deltaT = 3.83293e-06
Time = 2.23997e-05

diagonal:  Solving for rho, Initial residual = 0, Final residual = 0, No Iterations 0
diagonal:  Solving for rhoUx, Initial residual = 0, Final residual = 0, No Iterations 0
smoothSolver:  Solving for Ux, Initial residual = 1.08987e-06, Final residual = 3.09103e-17, No Iterations 1
diagonal:  Solving for rhoE, Initial residual = 0, Final residual = 0, No Iterations 0
smoothSolver:  Solving for e, Initial residual = 0.000685117, Final residual = 1.80913e-13, No Iterations 1
ExecutionTime = 0.22 s  ClockTime = 0 s

max/min T:    1.12735/0.991584
max/min p:    0.465283/0.346231
max/min rho:  1.03175/0.843545
max/min U:    (2 0 0)/(-2 0 0)
Courant Number = 0.0337097
deltaT = 4.59945e-06
Time = 2.69992e-05

diagonal:  Solving for rho, Initial residual = 0, Final residual = 0, No Iterations 0
diagonal:  Solving for rhoUx, Initial residual = 0, Final residual = 0, No Iterations 0
smoothSolver:  Solving for Ux, Initial residual = 1.25676e-06, Final residual = 2.26515e-17, No Iterations 1
diagonal:  Solving for rhoE, Initial residual = 0, Final residual = 0, No Iterations 0
smoothSolver:  Solving for e, Initial residual = 0.000794863, Final residual = 7.75276e-14, No Iterations 1
ExecutionTime = 0.22 s  ClockTime = 0 s

max/min T:    1.14636/0.990599
max/min p:    0.47501/0.337604
max/min rho:  1.03585/0.817831
max/min U:    (2 0 0)/(-2 0 0)
Courant Number = 0.040451
deltaT = 5.51883e-06
Time = 3.2518e-05

diagonal:  Solving for rho, Initial residual = 0, Final residual = 0, No Iterations 0
diagonal:  Solving for rhoUx, Initial residual = 0, Final residual = 0, No Iterations 0
smoothSolver:  Solving for Ux, Initial residual = 1.43855e-06, Final residual = 2.9384e-17, No Iterations 1
diagonal:  Solving for rhoE, Initial residual = 0, Final residual = 0, No Iterations 0
smoothSolver:  Solving for e, Initial residual = 0.000917253, Final residual = 1.0447e-13, No Iterations 1
ExecutionTime = 0.23 s  ClockTime = 0 s

max/min T:    1.1669/0.989721
max/min p:    0.485394/0.328073
max/min rho:  1.03987/0.789337
max/min U:    (2 0 0)/(-2 0 0)
Courant Number = 0.0485368
deltaT = 6.62172e-06
Time = 3.91397e-05

diagonal:  Solving for rho, Initial residual = 0, Final residual = 0, No Iterations 0
diagonal:  Solving for rhoUx, Initial residual = 0, Final residual = 0, No Iterations 0
smoothSolver:  Solving for Ux, Initial residual = 1.63269e-06, Final residual = 3.18031e-17, No Iterations 1
diagonal:  Solving for rhoE, Initial residual = 0, Final residual = 0, No Iterations 0
smoothSolver:  Solving for e, Initial residual = 0.0010525, Final residual = 1.1299e-13, No Iterations 1
ExecutionTime = 0.24 s  ClockTime = 0 s

max/min T:    1.18873/0.989075
max/min p:    0.496205/0.317676
max/min rho:  1.04351/0.758228
max/min U:    (2 0 0)/(-2 0 0)
Courant Number = 0.0582364
deltaT = 7.94543e-06
Time = 4.70851e-05

diagonal:  Solving for rho, Initial residual = 0, Final residual = 0, No Iterations 0
diagonal:  Solving for rhoUx, Initial residual = 0, Final residual = 0, No Iterations 0
smoothSolver:  Solving for Ux, Initial residual = 1.83524e-06, Final residual = 3.07322e-17, No Iterations 1
diagonal:  Solving for rhoE, Initial residual = 0, Final residual = 0, No Iterations 0
smoothSolver:  Solving for e, Initial residual = 0.00120091, Final residual = 1.03815e-13, No Iterations 1
ExecutionTime = 0.25 s  ClockTime = 0 s

max/min T:    1.21154/0.98883
max/min p:    0.507106/0.306489
max/min rho:  1.04635/0.72484
max/min U:    (2 0 0)/(-2 0 0)
Courant Number = 0.0698781
deltaT = 9.533e-06
Time = 5.66181e-05

diagonal:  Solving for rho, Initial residual = 0, Final residual = 0, No Iterations 0
diagonal:  Solving for rhoUx, Initial residual = 0, Final residual = 0, No Iterations 0
smoothSolver:  Solving for Ux, Initial residual = 2.04021e-06, Final residual = 2.66149e-17, No Iterations 1
diagonal:  Solving for rhoE, Initial residual = 0, Final residual = 0, No Iterations 0
smoothSolver:  Solving for e, Initial residual = 0.00136292, Final residual = 5.28247e-14, No Iterations 1
ExecutionTime = 0.25 s  ClockTime = 0 s

max/min T:    1.23496/0.989203
max/min p:    0.517643/0.294638
max/min rho:  1.04783/0.689713
max/min U:    (2 0 0)/(-2 0 0)
Courant Number = 0.0838404
deltaT = 1.14392e-05
Time = 6.80573e-05

diagonal:  Solving for rho, Initial residual = 0, Final residual = 0, No Iterations 0
diagonal:  Solving for rhoUx, Initial residual = 0, Final residual = 0, No Iterations 0
smoothSolver:  Solving for Ux, Initial residual = 2.24089e-06, Final residual = 3.03663e-17, No Iterations 1
diagonal:  Solving for rhoE, Initial residual = 0, Final residual = 0, No Iterations 0
smoothSolver:  Solving for e, Initial residual = 0.00155407, Final residual = 6.66224e-14, No Iterations 1
ExecutionTime = 0.26 s  ClockTime = 0 s

max/min T:    1.25856/0.990448
max/min p:    0.527236/0.282289
max/min rho:  1.04724/0.653574
max/min U:    (2 0 0)/(-2 0 0)
Courant Number = 0.100605
deltaT = 1.37251e-05
Time = 8.17824e-05

diagonal:  Solving for rho, Initial residual = 0, Final residual = 0, No Iterations 0
diagonal:  Solving for rhoUx, Initial residual = 0, Final residual = 0, No Iterations 0
smoothSolver:  Solving for Ux, Initial residual = 2.42905e-06, Final residual = 3.30171e-17, No Iterations 1
diagonal:  Solving for rhoE, Initial residual = 0, Final residual = 0, No Iterations 0
smoothSolver:  Solving for e, Initial residual = 0.00179319, Final residual = 7.33572e-14, No Iterations 1
ExecutionTime = 0.26 s  ClockTime = 0 s

max/min T:    1.28187/0.991798
max/min p:    0.535187/0.269657
max/min rho:  1.0437/0.617315
max/min U:    (2 0 0)/(-2 0 0)
Courant Number = 0.120709
deltaT = 1.64692e-05
Time = 9.82516e-05

diagonal:  Solving for rho, Initial residual = 0, Final residual = 0, No Iterations 0
diagonal:  Solving for rhoUx, Initial residual = 0, Final residual = 0, No Iterations 0
smoothSolver:  Solving for Ux, Initial residual = 2.59801e-06, Final residual = 2.07303e-17, No Iterations 1
diagonal:  Solving for rhoE, Initial residual = 0, Final residual = 0, No Iterations 0
smoothSolver:  Solving for e, Initial residual = 0.00207525, Final residual = 2.95051e-14, No Iterations 1
ExecutionTime = 0.27 s  ClockTime = 0 s

max/min T:    1.30444/0.990311
max/min p:    0.540694/0.256992
max/min rho:  1.0362/0.581892
max/min U:    (2 0 0)/(-2 0 0)
Courant Number = 0.144843
deltaT = 1.97552e-05
Time = 0.000118007

diagonal:  Solving for rho, Initial residual = 0, Final residual = 0, No Iterations 0
diagonal:  Solving for rhoUx, Initial residual = 0, Final residual = 0, No Iterations 0
smoothSolver:  Solving for Ux, Initial residual = 2.74237e-06, Final residual = 2.75513e-17, No Iterations 1
diagonal:  Solving for rhoE, Initial residual = 0, Final residual = 0, No Iterations 0
smoothSolver:  Solving for e, Initial residual = 0.0024086, Final residual = 4.02745e-14, No Iterations 1
ExecutionTime = 0.28 s  ClockTime = 0 s

max/min T:    1.32582/0.989159
max/min p:    0.542886/0.24457
max/min rho:  1.02362/0.548226
max/min U:    (2 0 0)/(-2 0 0)
Courant Number = 0.173743
deltaT = 2.31578e-05
Time = 0.000141165

diagonal:  Solving for rho, Initial residual = 0, Final residual = 0, No Iterations 0
diagonal:  Solving for rhoUx, Initial residual = 0, Final residual = 0, No Iterations 0
smoothSolver:  Solving for Ux, Initial residual = 2.80385e-06, Final residual = 3.18276e-17, No Iterations 1
diagonal:  Solving for rhoE, Initial residual = 0, Final residual = 0, No Iterations 0
smoothSolver:  Solving for e, Initial residual = 0.00273883, Final residual = 4.94462e-14, No Iterations 1
ExecutionTime = 0.28 s  ClockTime = 1 s

max/min T:    1.34512/0.988722
max/min p:    0.540913/0.232938
max/min rho:  1.00526/0.517723
max/min U:    (2 0 0)/(-2 0 0)
Courant Number = 0.203668
deltaT = 2.6563e-05
Time = 0.000167728

diagonal:  Solving for rho, Initial residual = 0, Final residual = 0, No Iterations 0
diagonal:  Solving for rhoUx, Initial residual = 0, Final residual = 0, No Iterations 0
smoothSolver:  Solving for Ux, Initial residual = 2.79663e-06, Final residual = 3.365e-17, No Iterations 1
diagonal:  Solving for rhoE, Initial residual = 0, Final residual = 0, No Iterations 0
smoothSolver:  Solving for e, Initial residual = 0.00306705, Final residual = 5.49714e-14, No Iterations 1
ExecutionTime = 0.29 s  ClockTime = 1 s

max/min T:    1.36171/0.989177
max/min p:    0.534371/0.222426
max/min rho:  0.999943/0.490978
max/min U:    (2 0 0)/(-2 0 0)
Courant Number = 0.233615
deltaT = 2.99653e-05
Time = 0.000197693

diagonal:  Solving for rho, Initial residual = 0, Final residual = 0, No Iterations 0
diagonal:  Solving for rhoUx, Initial residual = 0, Final residual = 0, No Iterations 0
smoothSolver:  Solving for Ux, Initial residual = 3.0178e-06, Final residual = 3.43179e-17, No Iterations 1
diagonal:  Solving for rhoE, Initial residual = 0, Final residual = 0, No Iterations 0
smoothSolver:  Solving for e, Initial residual = 0.00337293, Final residual = 5.88366e-14, No Iterations 1
ExecutionTime = 0.29 s  ClockTime = 1 s

max/min T:    1.37526/0.987038
max/min p:    0.523298/0.213074
max/min rho:  0.999943/0.467754
max/min U:    (2 0 0)/(-2 0 0)
Courant Number = 0.263537
deltaT = 3.33572e-05
Time = 0.00023105

diagonal:  Solving for rho, Initial residual = 0, Final residual = 0, No Iterations 0
diagonal:  Solving for rhoUx, Initial residual = 0, Final residual = 0, No Iterations 0
smoothSolver:  Solving for Ux, Initial residual = 3.28366e-06, Final residual = 2.3187e-17, No Iterations 1
diagonal:  Solving for rhoE, Initial residual = 0, Final residual = 0, No Iterations 0
smoothSolver:  Solving for e, Initial residual = 0.00367331, Final residual = 2.33289e-14, No Iterations 1
ExecutionTime = 0.3 s  ClockTime = 1 s

max/min T:    1.38558/0.98552
max/min p:    0.508047/0.204718
max/min rho:  0.999943/0.447359
max/min U:    (2 0 0)/(-2 0 0)
Courant Number = 0.293368
deltaT = 3.40883e-05
Time = 0.000265139

diagonal:  Solving for rho, Initial residual = 0, Final residual = 0, No Iterations 0
diagonal:  Solving for rhoUx, Initial residual = 0, Final residual = 0, No Iterations 0
smoothSolver:  Solving for Ux, Initial residual = 3.22472e-06, Final residual = 2.43683e-17, No Iterations 1
diagonal:  Solving for rhoE, Initial residual = 0, Final residual = 0, No Iterations 0
smoothSolver:  Solving for e, Initial residual = 0.00363175, Final residual = 2.38753e-14, No Iterations 1
ExecutionTime = 0.31 s  ClockTime = 1 s

max/min T:    1.3921/0.98497
max/min p:    0.490545/0.197675
max/min rho:  0.999943/0.430285
max/min U:    (2 0 0)/(-2 0 0)
Courant Number = 0.299798
deltaT = 3.40883e-05
Time = 0.000299227

diagonal:  Solving for rho, Initial residual = 0, Final residual = 0, No Iterations 0
diagonal:  Solving for rhoUx, Initial residual = 0, Final residual = 0, No Iterations 0
smoothSolver:  Solving for Ux, Initial residual = 3.05956e-06, Final residual = 2.3896e-17, No Iterations 1
diagonal:  Solving for rhoE, Initial residual = 0, Final residual = 0, No Iterations 0
smoothSolver:  Solving for e, Initial residual = 0.003483, Final residual = 2.40671e-14, No Iterations 1
ExecutionTime = 0.31 s  ClockTime = 1 s

max/min T:    1.39548/0.983805
max/min p:    0.472068/0.191534
max/min rho:  0.999943/0.41553
max/min U:    (2 0 0)/(-2 0 0)
Courant Number = 0.299798
deltaT = 3.40883e-05
Time = 0.000333315

diagonal:  Solving for rho, Initial residual = 0, Final residual = 0, No Iterations 0
diagonal:  Solving for rhoUx, Initial residual = 0, Final residual = 0, No Iterations 0
smoothSolver:  Solving for Ux, Initial residual = 2.88119e-06, Final residual = 2.47366e-17, No Iterations 1
diagonal:  Solving for rhoE, Initial residual = 0, Final residual = 0, No Iterations 0
smoothSolver:  Solving for e, Initial residual = 0.00332256, Final residual = 2.38895e-14, No Iterations 1
ExecutionTime = 0.32 s  ClockTime = 1 s

max/min T:    1.39641/0.982163
max/min p:    0.453239/0.185934
max/min rho:  0.999943/0.402239
max/min U:    (2 0 0)/(-2 0 0)
Courant Number = 0.299798
deltaT = 3.40883e-05
Time = 0.000367404

diagonal:  Solving for rho, Initial residual = 0, Final residual = 0, No Iterations 0
diagonal:  Solving for rhoUx, Initial residual = 0, Final residual = 0, No Iterations 0
smoothSolver:  Solving for Ux, Initial residual = 2.70171e-06, Final residual = 2.4543e-17, No Iterations 1
diagonal:  Solving for rhoE, Initial residual = 0, Final residual = 0, No Iterations 0
smoothSolver:  Solving for e, Initial residual = 0.00315798, Final residual = 2.42542e-14, No Iterations 1
ExecutionTime = 0.32 s  ClockTime = 1 s

max/min T:    1.39537/0.981116
max/min p:    0.434458/0.180672
max/min rho:  0.999943/0.389936
max/min U:    (2 0 0)/(-2 0 0)
Courant Number = 0.299798
deltaT = 3.40883e-05
Time = 0.000401492

diagonal:  Solving for rho, Initial residual = 0, Final residual = 0, No Iterations 0
diagonal:  Solving for rhoUx, Initial residual = 0, Final residual = 0, No Iterations 0
smoothSolver:  Solving for Ux, Initial residual = 2.52704e-06, Final residual = 2.47022e-17, No Iterations 1
diagonal:  Solving for rhoE, Initial residual = 0, Final residual = 0, No Iterations 0
smoothSolver:  Solving for e, Initial residual = 0.00300622, Final residual = 2.41902e-14, No Iterations 1
ExecutionTime = 0.33 s  ClockTime = 1 s

max/min T:    1.39273/0.980596
max/min p:    0.415977/0.175632
max/min rho:  0.999943/0.378351
max/min U:    (2 0 0)/(-2 0 0)
Courant Number = 0.299798
deltaT = 3.40883e-05
Time = 0.00043558

diagonal:  Solving for rho, Initial residual = 0, Final residual = 0, No Iterations 0
diagonal:  Solving for rhoUx, Initial residual = 0, Final residual = 0, No Iterations 0
smoothSolver:  Solving for Ux, Initial residual = 2.3604e-06, Final residual = 2.46114e-17, No Iterations 1
diagonal:  Solving for rhoE, Initial residual = 0, Final residual = 0, No Iterations 0
smoothSolver:  Solving for e, Initial residual = 0.00285924, Final residual = 2.43354e-14, No Iterations 1
ExecutionTime = 0.33 s  ClockTime = 1 s

max/min T:    1.38878/0.979275
max/min p:    0.4/0.170751
max/min rho:  0.999943/0.367325
max/min U:    (2 0 0)/(-2 0 0)
Courant Number = 0.299798
deltaT = 3.40883e-05
Time = 0.000469669

diagonal:  Solving for rho, Initial residual = 0, Final residual = 0, No Iterations 0
diagonal:  Solving for rhoUx, Initial residual = 0, Final residual = 0, No Iterations 0
smoothSolver:  Solving for Ux, Initial residual = 2.20338e-06, Final residual = 2.47662e-17, No Iterations 1
diagonal:  Solving for rhoE, Initial residual = 0, Final residual = 0, No Iterations 0
smoothSolver:  Solving for e, Initial residual = 0.00271534, Final residual = 2.46904e-14, No Iterations 1
ExecutionTime = 0.34 s  ClockTime = 1 s

max/min T:    1.38374/0.977875
max/min p:    0.4/0.165993
max/min rho:  0.999943/0.356765
max/min U:    (2 0 0)/(-2 0 0)
Courant Number = 0.299798
deltaT = 3.40883e-05
Time = 0.000503757

diagonal:  Solving for rho, Initial residual = 0, Final residual = 0, No Iterations 0
diagonal:  Solving for rhoUx, Initial residual = 0, Final residual = 0, No Iterations 0
smoothSolver:  Solving for Ux, Initial residual = 2.05659e-06, Final residual = 2.49392e-17, No Iterations 1
diagonal:  Solving for rhoE, Initial residual = 0, Final residual = 0, No Iterations 0
smoothSolver:  Solving for e, Initial residual = 0.00258752, Final residual = 2.49612e-14, No Iterations 1
ExecutionTime = 0.35 s  ClockTime = 1 s

max/min T:    1.37779/0.976832
max/min p:    0.4/0.161341
max/min rho:  0.999943/0.346614
max/min U:    (2 0 0)/(-2 0 0)
Courant Number = 0.299798
deltaT = 3.40883e-05
Time = 0.000537845

diagonal:  Solving for rho, Initial residual = 0, Final residual = 0, No Iterations 0
diagonal:  Solving for rhoUx, Initial residual = 0, Final residual = 0, No Iterations 0
smoothSolver:  Solving for Ux, Initial residual = 1.92004e-06, Final residual = 2.53066e-17, No Iterations 1
diagonal:  Solving for rhoE, Initial residual = 0, Final residual = 0, No Iterations 0
smoothSolver:  Solving for e, Initial residual = 0.00246425, Final residual = 2.54042e-14, No Iterations 1
ExecutionTime = 0.35 s  ClockTime = 1 s

max/min T:    1.37108/0.976109
max/min p:    0.4/0.156785
max/min rho:  0.999943/0.336835
max/min U:    (2 0 0)/(-2 0 0)
Courant Number = 0.299798
deltaT = 3.40883e-05
Time = 0.000571933

diagonal:  Solving for rho, Initial residual = 0, Final residual = 0, No Iterations 0
diagonal:  Solving for rhoUx, Initial residual = 0, Final residual = 0, No Iterations 0
smoothSolver:  Solving for Ux, Initial residual = 1.79344e-06, Final residual = 2.51622e-17, No Iterations 1
diagonal:  Solving for rhoE, Initial residual = 0, Final residual = 0, No Iterations 0
smoothSolver:  Solving for e, Initial residual = 0.00234648, Final residual = 2.59766e-14, No Iterations 1
ExecutionTime = 0.36 s  ClockTime = 1 s

max/min T:    1.36373/0.97518
max/min p:    0.4/0.152325
max/min rho:  0.999943/0.327403
max/min U:    (2 0 0)/(-2 0 0)
Courant Number = 0.299798
deltaT = 3.40883e-05
Time = 0.000606022

diagonal:  Solving for rho, Initial residual = 0, Final residual = 0, No Iterations 0
diagonal:  Solving for rhoUx, Initial residual = 0, Final residual = 0, No Iterations 0
smoothSolver:  Solving for Ux, Initial residual = 1.67626e-06, Final residual = 2.54015e-17, No Iterations 1
diagonal:  Solving for rhoE, Initial residual = 0, Final residual = 0, No Iterations 0
smoothSolver:  Solving for e, Initial residual = 0.0022371, Final residual = 2.63759e-14, No Iterations 1
ExecutionTime = 0.36 s  ClockTime = 1 s

max/min T:    1.35584/0.973795
max/min p:    0.4/0.147959
max/min rho:  0.999943/0.3183
max/min U:    (2 0 0)/(-2 0 0)
Courant Number = 0.299798
deltaT = 3.40883e-05
Time = 0.00064011

diagonal:  Solving for rho, Initial residual = 0, Final residual = 0, No Iterations 0
diagonal:  Solving for rhoUx, Initial residual = 0, Final residual = 0, No Iterations 0
smoothSolver:  Solving for Ux, Initial residual = 1.56792e-06, Final residual = 2.55436e-17, No Iterations 1
diagonal:  Solving for rhoE, Initial residual = 0, Final residual = 0, No Iterations 0
smoothSolver:  Solving for e, Initial residual = 0.00213379, Final residual = 2.7305e-14, No Iterations 1
ExecutionTime = 0.37 s  ClockTime = 1 s

max/min T:    1.34752/0.972649
max/min p:    0.4/0.143547
max/min rho:  0.999943/0.309511
max/min U:    (2 0 0)/(-2 0 0)
Courant Number = 0.299798
deltaT = 3.40883e-05
Time = 0.000674198

diagonal:  Solving for rho, Initial residual = 0, Final residual = 0, No Iterations 0
diagonal:  Solving for rhoUx, Initial residual = 0, Final residual = 0, No Iterations 0
smoothSolver:  Solving for Ux, Initial residual = 1.46779e-06, Final residual = 2.64366e-17, No Iterations 1
diagonal:  Solving for rhoE, Initial residual = 0, Final residual = 0, No Iterations 0
smoothSolver:  Solving for e, Initial residual = 0.00203666, Final residual = 2.7995e-14, No Iterations 1
ExecutionTime = 0.37 s  ClockTime = 1 s

max/min T:    1.33882/0.971722
max/min p:    0.4/0.1387
max/min rho:  0.999943/0.301026
max/min U:    (2 0 0)/(-2 0 0)
Courant Number = 0.299798
deltaT = 3.40883e-05
Time = 0.000708287

diagonal:  Solving for rho, Initial residual = 0, Final residual = 0, No Iterations 0
diagonal:  Solving for rhoUx, Initial residual = 0, Final residual = 0, No Iterations 0
smoothSolver:  Solving for Ux, Initial residual = 1.37522e-06, Final residual = 2.61906e-17, No Iterations 1
diagonal:  Solving for rhoE, Initial residual = 0, Final residual = 0, No Iterations 0
smoothSolver:  Solving for e, Initial residual = 0.00195277, Final residual = 2.84797e-14, No Iterations 1
ExecutionTime = 0.38 s  ClockTime = 1 s

max/min T:    1.32981/0.97099
max/min p:    0.4/0.13411
max/min rho:  0.999943/0.292832
max/min U:    (2 0 0)/(-2 0 0)
Courant Number = 0.299798
deltaT = 3.40883e-05
Time = 0.000742375

diagonal:  Solving for rho, Initial residual = 0, Final residual = 0, No Iterations 0
diagonal:  Solving for rhoUx, Initial residual = 0, Final residual = 0, No Iterations 0
smoothSolver:  Solving for Ux, Initial residual = 1.28962e-06, Final residual = 2.60074e-17, No Iterations 1
diagonal:  Solving for rhoE, Initial residual = 0, Final residual = 0, No Iterations 0
smoothSolver:  Solving for e, Initial residual = 0.00187441, Final residual = 2.96589e-14, No Iterations 1
ExecutionTime = 0.38 s  ClockTime = 1 s

max/min T:    1.32055/0.969888
max/min p:    0.4/0.12975
max/min rho:  0.999943/0.284919
max/min U:    (2 0 0)/(-2 0 0)
Courant Number = 0.299798
deltaT = 3.40883e-05
Time = 0.000776463

diagonal:  Solving for rho, Initial residual = 0, Final residual = 0, No Iterations 0
diagonal:  Solving for rhoUx, Initial residual = 0, Final residual = 0, No Iterations 0
smoothSolver:  Solving for Ux, Initial residual = 1.2104e-06, Final residual = 2.63199e-17, No Iterations 1
diagonal:  Solving for rhoE, Initial residual = 0, Final residual = 0, No Iterations 0
smoothSolver:  Solving for e, Initial residual = 0.00180131, Final residual = 3.08408e-14, No Iterations 1
ExecutionTime = 0.39 s  ClockTime = 1 s

max/min T:    1.31109/0.968628
max/min p:    0.4/0.125602
max/min rho:  0.999943/0.277278
max/min U:    (2 0 0)/(-2 0 0)
Courant Number = 0.299798
deltaT = 3.40883e-05
Time = 0.000810552

diagonal:  Solving for rho, Initial residual = 0, Final residual = 0, No Iterations 0
diagonal:  Solving for rhoUx, Initial residual = 0, Final residual = 0, No Iterations 0
smoothSolver:  Solving for Ux, Initial residual = 1.13703e-06, Final residual = 2.62547e-17, No Iterations 1
diagonal:  Solving for rhoE, Initial residual = 0, Final residual = 0, No Iterations 0
smoothSolver:  Solving for e, Initial residual = 0.00173932, Final residual = 3.20041e-14, No Iterations 1
ExecutionTime = 0.4 s  ClockTime = 1 s

max/min T:    1.30146/0.96753
max/min p:    0.4/0.121647
max/min rho:  0.999943/0.269899
max/min U:    (2 0 0)/(-2 0 0)
Courant Number = 0.299798
deltaT = 3.40883e-05
Time = 0.00084464

diagonal:  Solving for rho, Initial residual = 0, Final residual = 0, No Iterations 0
diagonal:  Solving for rhoUx, Initial residual = 0, Final residual = 0, No Iterations 0
smoothSolver:  Solving for Ux, Initial residual = 1.06902e-06, Final residual = 2.63269e-17, No Iterations 1
diagonal:  Solving for rhoE, Initial residual = 0, Final residual = 0, No Iterations 0
smoothSolver:  Solving for e, Initial residual = 0.00168322, Final residual = 3.3328e-14, No Iterations 1
ExecutionTime = 0.4 s  ClockTime = 1 s

max/min T:    1.29169/0.96658
max/min p:    0.4/0.11787
max/min rho:  0.999943/0.262772
max/min U:    (2 0 0)/(-2 0 0)
Courant Number = 0.299798
deltaT = 3.40883e-05
Time = 0.000878728

diagonal:  Solving for rho, Initial residual = 0, Final residual = 0, No Iterations 0
diagonal:  Solving for rhoUx, Initial residual = 0, Final residual = 0, No Iterations 0
smoothSolver:  Solving for Ux, Initial residual = 1.0059e-06, Final residual = 2.63603e-17, No Iterations 1
diagonal:  Solving for rhoE, Initial residual = 0, Final residual = 0, No Iterations 0
smoothSolver:  Solving for e, Initial residual = 0.00163203, Final residual = 3.43927e-14, No Iterations 1
ExecutionTime = 0.41 s  ClockTime = 1 s

max/min T:    1.28183/0.965763
max/min p:    0.4/0.114259
max/min rho:  0.999943/0.255888
max/min U:    (2 0 0)/(-2 0 0)
Courant Number = 0.299798
deltaT = 3.40883e-05
Time = 0.000912817

diagonal:  Solving for rho, Initial residual = 0, Final residual = 0, No Iterations 0
diagonal:  Solving for rhoUx, Initial residual = 0, Final residual = 0, No Iterations 0
smoothSolver:  Solving for Ux, Initial residual = 9.47274e-07, Final residual = 2.63775e-17, No Iterations 1
diagonal:  Solving for rhoE, Initial residual = 0, Final residual = 0, No Iterations 0
smoothSolver:  Solving for e, Initial residual = 0.00158966, Final residual = 3.65627e-14, No Iterations 1
ExecutionTime = 0.41 s  ClockTime = 1 s

max/min T:    1.2719/0.964799
max/min p:    0.4/0.110801
max/min rho:  0.999943/0.249239
max/min U:    (2 0 0)/(-2 0 0)
Courant Number = 0.299798
deltaT = 3.40883e-05
Time = 0.000946905

diagonal:  Solving for rho, Initial residual = 0, Final residual = 0, No Iterations 0
diagonal:  Solving for rhoUx, Initial residual = 0, Final residual = 0, No Iterations 0
smoothSolver:  Solving for Ux, Initial residual = 8.92756e-07, Final residual = 2.68657e-17, No Iterations 1
diagonal:  Solving for rhoE, Initial residual = 0, Final residual = 0, No Iterations 0
smoothSolver:  Solving for e, Initial residual = 0.00155471, Final residual = 3.80898e-14, No Iterations 1
ExecutionTime = 0.42 s  ClockTime = 1 s

max/min T:    1.26191/0.963561
max/min p:    0.4/0.107488
max/min rho:  0.999943/0.242815
max/min U:    (2 0 0)/(-2 0 0)
Courant Number = 0.299798
deltaT = 3.40883e-05
Time = 0.000980993

diagonal:  Solving for rho, Initial residual = 0, Final residual = 0, No Iterations 0
diagonal:  Solving for rhoUx, Initial residual = 0, Final residual = 0, No Iterations 0
smoothSolver:  Solving for Ux, Initial residual = 8.42006e-07, Final residual = 2.71055e-17, No Iterations 1
diagonal:  Solving for rhoE, Initial residual = 0, Final residual = 0, No Iterations 0
smoothSolver:  Solving for e, Initial residual = 0.00152503, Final residual = 4.04062e-14, No Iterations 1
ExecutionTime = 0.43 s  ClockTime = 1 s

max/min T:    1.2519/0.96244
max/min p:    0.4/0.104309
max/min rho:  0.999943/0.236608
max/min U:    (2 0 0)/(-2 0 0)
Courant Number = 0.299798
deltaT = 3.40883e-05
Time = 0.00101508

diagonal:  Solving for rho, Initial residual = 0, Final residual = 0, No Iterations 0
diagonal:  Solving for rhoUx, Initial residual = 0, Final residual = 0, No Iterations 0
smoothSolver:  Solving for Ux, Initial residual = 7.94714e-07, Final residual = 2.68292e-17, No Iterations 1
diagonal:  Solving for rhoE, Initial residual = 0, Final residual = 0, No Iterations 0
smoothSolver:  Solving for e, Initial residual = 0.00150263, Final residual = 4.25567e-14, No Iterations 1
ExecutionTime = 0.43 s  ClockTime = 1 s

max/min T:    1.24188/0.961426
max/min p:    0.4/0.101256
max/min rho:  0.999943/0.230609
max/min U:    (2 0 0)/(-2 0 0)
Courant Number = 0.299798
deltaT = 3.40883e-05
Time = 0.00104917

diagonal:  Solving for rho, Initial residual = 0, Final residual = 0, No Iterations 0
diagonal:  Solving for rhoUx, Initial residual = 0, Final residual = 0, No Iterations 0
smoothSolver:  Solving for Ux, Initial residual = 7.50598e-07, Final residual = 2.65045e-17, No Iterations 1
diagonal:  Solving for rhoE, Initial residual = 0, Final residual = 0, No Iterations 0
smoothSolver:  Solving for e, Initial residual = 0.00149385, Final residual = 4.50966e-14, No Iterations 1
ExecutionTime = 0.44 s  ClockTime = 1 s

max/min T:    1.23186/0.96051
max/min p:    0.4/0.0983234
max/min rho:  0.999943/0.224812
max/min U:    (2 0 0)/(-2 0 0)
Courant Number = 0.299798
deltaT = 3.40883e-05
Time = 0.00108326

diagonal:  Solving for rho, Initial residual = 0, Final residual = 0, No Iterations 0
diagonal:  Solving for rhoUx, Initial residual = 0, Final residual = 0, No Iterations 0
smoothSolver:  Solving for Ux, Initial residual = 7.09405e-07, Final residual = 2.65575e-17, No Iterations 1
diagonal:  Solving for rhoE, Initial residual = 0, Final residual = 0, No Iterations 0
smoothSolver:  Solving for e, Initial residual = 0.00149523, Final residual = 4.7888e-14, No Iterations 1
ExecutionTime = 0.44 s  ClockTime = 1 s

max/min T:    1.22186/0.959682
max/min p:    0.4/0.0955033
max/min rho:  0.999943/0.219207
max/min U:    (2 0 0)/(-2 0 0)
Courant Number = 0.299798
deltaT = 3.40883e-05
Time = 0.00111735

diagonal:  Solving for rho, Initial residual = 0, Final residual = 0, No Iterations 0
diagonal:  Solving for rhoUx, Initial residual = 0, Final residual = 0, No Iterations 0
smoothSolver:  Solving for Ux, Initial residual = 6.70902e-07, Final residual = 2.68461e-17, No Iterations 1
diagonal:  Solving for rhoE, Initial residual = 0, Final residual = 0, No Iterations 0
smoothSolver:  Solving for e, Initial residual = 0.00150431, Final residual = 5.09016e-14, No Iterations 1
ExecutionTime = 0.45 s  ClockTime = 1 s

max/min T:    1.21189/0.958559
max/min p:    0.4/0.09279
max/min rho:  0.999943/0.213788
max/min U:    (2 0 0)/(-2 0 0)
Courant Number = 0.299798
deltaT = 3.40883e-05
Time = 0.00115143

diagonal:  Solving for rho, Initial residual = 0, Final residual = 0, No Iterations 0
diagonal:  Solving for rhoUx, Initial residual = 0, Final residual = 0, No Iterations 0
smoothSolver:  Solving for Ux, Initial residual = 6.3488e-07, Final residual = 2.74324e-17, No Iterations 1
diagonal:  Solving for rhoE, Initial residual = 0, Final residual = 0, No Iterations 0
smoothSolver:  Solving for e, Initial residual = 0.00152852, Final residual = 5.54956e-14, No Iterations 1
ExecutionTime = 0.46 s  ClockTime = 1 s

max/min T:    1.20197/0.957392
max/min p:    0.4/0.0901778
max/min rho:  0.999943/0.208547
max/min U:    (2 0 0)/(-2 0 0)
Courant Number = 0.299798
deltaT = 3.40883e-05
Time = 0.00118552

diagonal:  Solving for rho, Initial residual = 0, Final residual = 0, No Iterations 0
diagonal:  Solving for rhoUx, Initial residual = 0, Final residual = 0, No Iterations 0
smoothSolver:  Solving for Ux, Initial residual = 6.01147e-07, Final residual = 2.70915e-17, No Iterations 1
diagonal:  Solving for rhoE, Initial residual = 0, Final residual = 0, No Iterations 0
smoothSolver:  Solving for e, Initial residual = 0.00157037, Final residual = 6.18141e-14, No Iterations 1
ExecutionTime = 0.46 s  ClockTime = 1 s

max/min T:    1.19209/0.956307
max/min p:    0.4/0.0876619
max/min rho:  0.999943/0.203478
max/min U:    (2 0 0)/(-2 0 0)
Courant Number = 0.299798
deltaT = 3.40883e-05
Time = 0.00121961

diagonal:  Solving for rho, Initial residual = 0, Final residual = 0, No Iterations 0
diagonal:  Solving for rhoUx, Initial residual = 0, Final residual = 0, No Iterations 0
smoothSolver:  Solving for Ux, Initial residual = 5.70153e-07, Final residual = 2.70877e-17, No Iterations 1
diagonal:  Solving for rhoE, Initial residual = 0, Final residual = 0, No Iterations 0
smoothSolver:  Solving for e, Initial residual = 0.00139843, Final residual = 5.8358e-14, No Iterations 1
ExecutionTime = 0.47 s  ClockTime = 1 s

max/min T:    1.18228/0.955297
max/min p:    0.4/0.0852374
max/min rho:  0.999943/0.198575
max/min U:    (2 0 0)/(-2 0 0)
Courant Number = 0.299798
deltaT = 3.40883e-05
Time = 0.0012537

diagonal:  Solving for rho, Initial residual = 0, Final residual = 0, No Iterations 0
diagonal:  Solving for rhoUx, Initial residual = 0, Final residual = 0, No Iterations 0
smoothSolver:  Solving for Ux, Initial residual = 5.41988e-07, Final residual = 2.73712e-17, No Iterations 1
diagonal:  Solving for rhoE, Initial residual = 0, Final residual = 0, No Iterations 0
smoothSolver:  Solving for e, Initial residual = 0.00119014, Final residual = 5.23528e-14, No Iterations 1
ExecutionTime = 0.47 s  ClockTime = 1 s

max/min T:    1.17253/0.954355
max/min p:    0.4/0.0829
max/min rho:  0.999943/0.19383
max/min U:    (2 0 0)/(-2 0 0)
Courant Number = 0.299798
deltaT = 3.40883e-05
Time = 0.00128779

diagonal:  Solving for rho, Initial residual = 0, Final residual = 0, No Iterations 0
diagonal:  Solving for rhoUx, Initial residual = 0, Final residual = 0, No Iterations 0
smoothSolver:  Solving for Ux, Initial residual = 5.16294e-07, Final residual = 2.74534e-17, No Iterations 1
diagonal:  Solving for rhoE, Initial residual = 0, Final residual = 0, No Iterations 0
smoothSolver:  Solving for e, Initial residual = 0.00102071, Final residual = 4.78851e-14, No Iterations 1
ExecutionTime = 0.48 s  ClockTime = 1 s

max/min T:    1.16286/0.953476
max/min p:    0.4/0.0806456
max/min rho:  0.999943/0.189238
max/min U:    (2 0 0)/(-2 0 0)
Courant Number = 0.299798
deltaT = 3.40883e-05
Time = 0.00132188

diagonal:  Solving for rho, Initial residual = 0, Final residual = 0, No Iterations 0
diagonal:  Solving for rhoUx, Initial residual = 0, Final residual = 0, No Iterations 0
smoothSolver:  Solving for Ux, Initial residual = 4.92634e-07, Final residual = 2.67869e-17, No Iterations 1
diagonal:  Solving for rhoE, Initial residual = 0, Final residual = 0, No Iterations 0
smoothSolver:  Solving for e, Initial residual = 0.000879635, Final residual = 4.30185e-14, No Iterations 1
ExecutionTime = 0.49 s  ClockTime = 1 s

max/min T:    1.15327/0.952408
max/min p:    0.4/0.0784705
max/min rho:  0.999943/0.184793
max/min U:    (2 0 0)/(-2 0 0)
Courant Number = 0.299798
deltaT = 3.40883e-05
Time = 0.00135596

diagonal:  Solving for rho, Initial residual = 0, Final residual = 0, No Iterations 0
diagonal:  Solving for rhoUx, Initial residual = 0, Final residual = 0, No Iterations 0
smoothSolver:  Solving for Ux, Initial residual = 4.70259e-07, Final residual = 2.72851e-17, No Iterations 1
diagonal:  Solving for rhoE, Initial residual = 0, Final residual = 0, No Iterations 0
smoothSolver:  Solving for e, Initial residual = 0.000763457, Final residual = 3.94527e-14, No Iterations 1
ExecutionTime = 0.49 s  ClockTime = 1 s

max/min T:    1.14377/0.951254
max/min p:    0.4/0.0763712
max/min rho:  0.999943/0.18049
max/min U:    (2 0 0)/(-2 0 0)
Courant Number = 0.299798
deltaT = 3.40883e-05
Time = 0.00139005

diagonal:  Solving for rho, Initial residual = 0, Final residual = 0, No Iterations 0
diagonal:  Solving for rhoUx, Initial residual = 0, Final residual = 0, No Iterations 0
smoothSolver:  Solving for Ux, Initial residual = 4.49583e-07, Final residual = 2.7226e-17, No Iterations 1
diagonal:  Solving for rhoE, Initial residual = 0, Final residual = 0, No Iterations 0
smoothSolver:  Solving for e, Initial residual = 0.000667681, Final residual = 3.61119e-14, No Iterations 1
ExecutionTime = 0.5 s  ClockTime = 1 s

max/min T:    1.13435/0.95016
max/min p:    0.4/0.0743442
max/min rho:  0.999943/0.176323
max/min U:    (2 0 0)/(-2 0 0)
Courant Number = 0.299798
deltaT = 3.40883e-05
Time = 0.00142414

diagonal:  Solving for rho, Initial residual = 0, Final residual = 0, No Iterations 0
diagonal:  Solving for rhoUx, Initial residual = 0, Final residual = 0, No Iterations 0
smoothSolver:  Solving for Ux, Initial residual = 4.30654e-07, Final residual = 2.69603e-17, No Iterations 1
diagonal:  Solving for rhoE, Initial residual = 0, Final residual = 0, No Iterations 0
smoothSolver:  Solving for e, Initial residual = 0.000585969, Final residual = 3.43584e-14, No Iterations 1
ExecutionTime = 0.5 s  ClockTime = 1 s

max/min T:    1.12503/0.949122
max/min p:    0.4/0.0723866
max/min rho:  0.999943/0.172288
max/min U:    (2 0 0)/(-2 0 0)
Courant Number = 0.299798
deltaT = 3.40883e-05
Time = 0.00145823

diagonal:  Solving for rho, Initial residual = 0, Final residual = 0, No Iterations 0
diagonal:  Solving for rhoUx, Initial residual = 0, Final residual = 0, No Iterations 0
smoothSolver:  Solving for Ux, Initial residual = 4.12672e-07, Final residual = 2.73184e-17, No Iterations 1
diagonal:  Solving for rhoE, Initial residual = 0, Final residual = 0, No Iterations 0
smoothSolver:  Solving for e, Initial residual = 0.000515642, Final residual = 3.17745e-14, No Iterations 1
ExecutionTime = 0.51 s  ClockTime = 1 s

max/min T:    1.11581/0.948133
max/min p:    0.4/0.0704953
max/min rho:  0.999943/0.168379
max/min U:    (2 0 0)/(-2 0 0)
Courant Number = 0.299798
deltaT = 3.40883e-05
Time = 0.00149232

diagonal:  Solving for rho, Initial residual = 0, Final residual = 0, No Iterations 0
diagonal:  Solving for rhoUx, Initial residual = 0, Final residual = 0, No Iterations 0
smoothSolver:  Solving for Ux, Initial residual = 3.95581e-07, Final residual = 2.72299e-17, No Iterations 1
diagonal:  Solving for rhoE, Initial residual = 0, Final residual = 0, No Iterations 0
smoothSolver:  Solving for e, Initial residual = 0.000455538, Final residual = 2.97542e-14, No Iterations 1
ExecutionTime = 0.51 s  ClockTime = 1 s

max/min T:    1.10668/0.947191
max/min p:    0.4/0.0686676
max/min rho:  0.999943/0.164593
max/min U:    (2 0 0)/(-2 0 0)
Courant Number = 0.299798
deltaT = 3.40883e-05
Time = 0.00152641

diagonal:  Solving for rho, Initial residual = 0, Final residual = 0, No Iterations 0
diagonal:  Solving for rhoUx, Initial residual = 0, Final residual = 0, No Iterations 0
smoothSolver:  Solving for Ux, Initial residual = 3.80283e-07, Final residual = 2.70642e-17, No Iterations 1
diagonal:  Solving for rhoE, Initial residual = 0, Final residual = 0, No Iterations 0
smoothSolver:  Solving for e, Initial residual = 0.00040561, Final residual = 2.79599e-14, No Iterations 1
ExecutionTime = 0.52 s  ClockTime = 1 s

max/min T:    1.09766/0.946288
max/min p:    0.4/0.0668605
max/min rho:  0.999943/0.160924
max/min U:    (2 0 0)/(-2 0 0)
Courant Number = 0.299798
deltaT = 3.40883e-05
Time = 0.00156049

diagonal:  Solving for rho, Initial residual = 0, Final residual = 0, No Iterations 0
diagonal:  Solving for rhoUx, Initial residual = 0, Final residual = 0, No Iterations 0
smoothSolver:  Solving for Ux, Initial residual = 3.6581e-07, Final residual = 2.74788e-17, No Iterations 1
diagonal:  Solving for rhoE, Initial residual = 0, Final residual = 0, No Iterations 0
smoothSolver:  Solving for e, Initial residual = 0.000362072, Final residual = 2.62223e-14, No Iterations 1
ExecutionTime = 0.53 s  ClockTime = 1 s

max/min T:    1.08874/0.945123
max/min p:    0.4/0.0650151
max/min rho:  0.999943/0.157368
max/min U:    (2 0 0)/(-2 0 0)
Courant Number = 0.299798
deltaT = 3.40883e-05
Time = 0.00159458

diagonal:  Solving for rho, Initial residual = 0, Final residual = 0, No Iterations 0
diagonal:  Solving for rhoUx, Initial residual = 0, Final residual = 0, No Iterations 0
smoothSolver:  Solving for Ux, Initial residual = 3.51991e-07, Final residual = 2.66037e-17, No Iterations 1
diagonal:  Solving for rhoE, Initial residual = 0, Final residual = 0, No Iterations 0
smoothSolver:  Solving for e, Initial residual = 0.000323564, Final residual = 2.46969e-14, No Iterations 1
ExecutionTime = 0.53 s  ClockTime = 1 s

max/min T:    1.07993/0.944002
max/min p:    0.4/0.0632315
max/min rho:  0.999943/0.153922
max/min U:    (2 0 0)/(-2 0 0)
Courant Number = 0.299798
deltaT = 3.40883e-05
Time = 0.00162867

diagonal:  Solving for rho, Initial residual = 0, Final residual = 0, No Iterations 0
diagonal:  Solving for rhoUx, Initial residual = 0, Final residual = 0, No Iterations 0
smoothSolver:  Solving for Ux, Initial residual = 3.39122e-07, Final residual = 2.71177e-17, No Iterations 1
diagonal:  Solving for rhoE, Initial residual = 0, Final residual = 0, No Iterations 0
smoothSolver:  Solving for e, Initial residual = 0.000290669, Final residual = 2.31062e-14, No Iterations 1
ExecutionTime = 0.54 s  ClockTime = 1 s

max/min T:    1.07122/0.942923
max/min p:    0.4/0.0615077
max/min rho:  0.999943/0.150581
max/min U:    (2 0 0)/(-2 0 0)
Courant Number = 0.299798
deltaT = 3.40883e-05
Time = 0.00166276

diagonal:  Solving for rho, Initial residual = 0, Final residual = 0, No Iterations 0
diagonal:  Solving for rhoUx, Initial residual = 0, Final residual = 0, No Iterations 0
smoothSolver:  Solving for Ux, Initial residual = 3.27724e-07, Final residual = 2.70099e-17, No Iterations 1
diagonal:  Solving for rhoE, Initial residual = 0, Final residual = 0, No Iterations 0
smoothSolver:  Solving for e, Initial residual = 0.000261615, Final residual = 2.18593e-14, No Iterations 1
ExecutionTime = 0.54 s  ClockTime = 1 s

max/min T:    1.06263/0.941882
max/min p:    0.4/0.0598416
max/min rho:  0.999943/0.147342
max/min U:    (2 0 0)/(-2 0 0)
Courant Number = 0.299798
deltaT = 3.40883e-05
Time = 0.00169685

diagonal:  Solving for rho, Initial residual = 0, Final residual = 0, No Iterations 0
diagonal:  Solving for rhoUx, Initial residual = 0, Final residual = 0, No Iterations 0
smoothSolver:  Solving for Ux, Initial residual = 3.16777e-07, Final residual = 2.71335e-17, No Iterations 1
diagonal:  Solving for rhoE, Initial residual = 0, Final residual = 0, No Iterations 0
smoothSolver:  Solving for e, Initial residual = 0.000235613, Final residual = 2.08327e-14, No Iterations 1
ExecutionTime = 0.55 s  ClockTime = 1 s

max/min T:    1.05415/0.940876
max/min p:    0.4/0.0582313
max/min rho:  0.999943/0.144201
max/min U:    (2 0 0)/(-2 0 0)
Courant Number = 0.299798
deltaT = 3.40883e-05
Time = 0.00173094

diagonal:  Solving for rho, Initial residual = 0, Final residual = 0, No Iterations 0
diagonal:  Solving for rhoUx, Initial residual = 0, Final residual = 0, No Iterations 0
smoothSolver:  Solving for Ux, Initial residual = 3.06254e-07, Final residual = 2.64908e-17, No Iterations 1
diagonal:  Solving for rhoE, Initial residual = 0, Final residual = 0, No Iterations 0
smoothSolver:  Solving for e, Initial residual = 0.000213167, Final residual = 1.96226e-14, No Iterations 1
ExecutionTime = 0.55 s  ClockTime = 1 s

max/min T:    1.04577/0.939901
max/min p:    0.4/0.056675
max/min rho:  0.999943/0.141155
max/min U:    (2 0 0)/(-2 0 0)
Courant Number = 0.299798
deltaT = 3.40883e-05
Time = 0.00176502

diagonal:  Solving for rho, Initial residual = 0, Final residual = 0, No Iterations 0
diagonal:  Solving for rhoUx, Initial residual = 0, Final residual = 0, No Iterations 0
smoothSolver:  Solving for Ux, Initial residual = 2.96325e-07, Final residual = 2.69581e-17, No Iterations 1
diagonal:  Solving for rhoE, Initial residual = 0, Final residual = 0, No Iterations 0
smoothSolver:  Solving for e, Initial residual = 0.000193927, Final residual = 1.85809e-14, No Iterations 1
ExecutionTime = 0.56 s  ClockTime = 1 s

max/min T:    1.03751/0.938954
max/min p:    0.4/0.0551706
max/min rho:  0.999943/0.138201
max/min U:    (2 0 0)/(-2 0 0)
Courant Number = 0.299798
deltaT = 3.40883e-05
Time = 0.00179911

diagonal:  Solving for rho, Initial residual = 0, Final residual = 0, No Iterations 0
diagonal:  Solving for rhoUx, Initial residual = 0, Final residual = 0, No Iterations 0
smoothSolver:  Solving for Ux, Initial residual = 2.87445e-07, Final residual = 2.65507e-17, No Iterations 1
diagonal:  Solving for rhoE, Initial residual = 0, Final residual = 0, No Iterations 0
smoothSolver:  Solving for e, Initial residual = 0.000176527, Final residual = 1.73873e-14, No Iterations 1
ExecutionTime = 0.57 s  ClockTime = 1 s

max/min T:    1.02936/0.937852
max/min p:    0.4/0.0537166
max/min rho:  0.999943/0.135335
max/min U:    (2 0 0)/(-2 0 0)
Courant Number = 0.299798
deltaT = 3.40883e-05
Time = 0.0018332

diagonal:  Solving for rho, Initial residual = 0, Final residual = 0, No Iterations 0
diagonal:  Solving for rhoUx, Initial residual = 0, Final residual = 0, No Iterations 0
smoothSolver:  Solving for Ux, Initial residual = 2.78868e-07, Final residual = 2.65353e-17, No Iterations 1
diagonal:  Solving for rhoE, Initial residual = 0, Final residual = 0, No Iterations 0
smoothSolver:  Solving for e, Initial residual = 0.000160837, Final residual = 1.67901e-14, No Iterations 1
ExecutionTime = 0.58 s  ClockTime = 1 s

max/min T:    1.02132/0.936729
max/min p:    0.4/0.052311
max/min rho:  0.999943/0.132555
max/min U:    (2 0 0)/(-2 0 0)
Courant Number = 0.299798
deltaT = 3.40883e-05
Time = 0.00186729

diagonal:  Solving for rho, Initial residual = 0, Final residual = 0, No Iterations 0
diagonal:  Solving for rhoUx, Initial residual = 0, Final residual = 0, No Iterations 0
smoothSolver:  Solving for Ux, Initial residual = 2.70578e-07, Final residual = 2.70762e-17, No Iterations 1
diagonal:  Solving for rhoE, Initial residual = 0, Final residual = 0, No Iterations 0
smoothSolver:  Solving for e, Initial residual = 0.000147024, Final residual = 1.62666e-14, No Iterations 1
ExecutionTime = 0.59 s  ClockTime = 1 s

max/min T:    1.0134/0.935637
max/min p:    0.4/0.0509523
max/min rho:  0.999943/0.129857
max/min U:    (2 0 0)/(-2 0 0)
Courant Number = 0.299798
deltaT = 3.40883e-05
Time = 0.00190138

diagonal:  Solving for rho, Initial residual = 0, Final residual = 0, No Iterations 0
diagonal:  Solving for rhoUx, Initial residual = 0, Final residual = 0, No Iterations 0
smoothSolver:  Solving for Ux, Initial residual = 2.62745e-07, Final residual = 2.70545e-17, No Iterations 1
diagonal:  Solving for rhoE, Initial residual = 0, Final residual = 0, No Iterations 0
smoothSolver:  Solving for e, Initial residual = 0.000134913, Final residual = 1.53536e-14, No Iterations 1
ExecutionTime = 0.59 s  ClockTime = 1 s

max/min T:    1.00559/0.934572
max/min p:    0.4/0.0496389
max/min rho:  0.999943/0.127238
max/min U:    (2 0 0)/(-2 0 0)
Courant Number = 0.299798
deltaT = 3.40883e-05
Time = 0.00193547

diagonal:  Solving for rho, Initial residual = 0, Final residual = 0, No Iterations 0
diagonal:  Solving for rhoUx, Initial residual = 0, Final residual = 0, No Iterations 0
smoothSolver:  Solving for Ux, Initial residual = 2.55754e-07, Final residual = 2.69627e-17, No Iterations 1
diagonal:  Solving for rhoE, Initial residual = 0, Final residual = 0, No Iterations 0
smoothSolver:  Solving for e, Initial residual = 0.000124175, Final residual = 1.44717e-14, No Iterations 1
ExecutionTime = 0.6 s  ClockTime = 1 s

max/min T:    1/0.933531
max/min p:    0.4/0.048369
max/min rho:  0.999943/0.124697
max/min U:    (2 0 0)/(-2 0 0)
Courant Number = 0.299798
deltaT = 3.40883e-05
Time = 0.00196955

diagonal:  Solving for rho, Initial residual = 0, Final residual = 0, No Iterations 0
diagonal:  Solving for rhoUx, Initial residual = 0, Final residual = 0, No Iterations 0
smoothSolver:  Solving for Ux, Initial residual = 2.48963e-07, Final residual = 2.74159e-17, No Iterations 1
diagonal:  Solving for rhoE, Initial residual = 0, Final residual = 0, No Iterations 0
smoothSolver:  Solving for e, Initial residual = 0.000114319, Final residual = 1.41108e-14, No Iterations 1
ExecutionTime = 0.6 s  ClockTime = 1 s

max/min T:    1/0.932513
max/min p:    0.4/0.0471413
max/min rho:  0.999943/0.122231
max/min U:    (2 0 0)/(-2 0 0)
Courant Number = 0.299798
deltaT = 3.40883e-05
Time = 0.00200364

diagonal:  Solving for rho, Initial residual = 0, Final residual = 0, No Iterations 0
diagonal:  Solving for rhoUx, Initial residual = 0, Final residual = 0, No Iterations 0
smoothSolver:  Solving for Ux, Initial residual = 2.42363e-07, Final residual = 2.70118e-17, No Iterations 1
diagonal:  Solving for rhoE, Initial residual = 0, Final residual = 0, No Iterations 0
smoothSolver:  Solving for e, Initial residual = 0.000105754, Final residual = 1.33301e-14, No Iterations 1
ExecutionTime = 0.61 s  ClockTime = 1 s

max/min T:    1/0.931514
max/min p:    0.4/0.0459542
max/min rho:  0.999943/0.119836
max/min U:    (2 0 0)/(-2 0 0)
Courant Number = 0.299798
deltaT = 3.40883e-05
Time = 0.00203773

diagonal:  Solving for rho, Initial residual = 0, Final residual = 0, No Iterations 0
diagonal:  Solving for rhoUx, Initial residual = 0, Final residual = 0, No Iterations 0
smoothSolver:  Solving for Ux, Initial residual = 2.36086e-07, Final residual = 2.70916e-17, No Iterations 1
diagonal:  Solving for rhoE, Initial residual = 0, Final residual = 0, No Iterations 0
smoothSolver:  Solving for e, Initial residual = 9.80113e-05, Final residual = 1.26829e-14, No Iterations 1
ExecutionTime = 0.61 s  ClockTime = 1 s

max/min T:    1/0.930532
max/min p:    0.4/0.0448063
max/min rho:  0.999943/0.117511
max/min U:    (2 0 0)/(-2 0 0)
Courant Number = 0.299798
deltaT = 3.40883e-05
Time = 0.00207182

diagonal:  Solving for rho, Initial residual = 0, Final residual = 0, No Iterations 0
diagonal:  Solving for rhoUx, Initial residual = 0, Final residual = 0, No Iterations 0
smoothSolver:  Solving for Ux, Initial residual = 2.30527e-07, Final residual = 2.72154e-17, No Iterations 1
diagonal:  Solving for rhoE, Initial residual = 0, Final residual = 0, No Iterations 0
smoothSolver:  Solving for e, Initial residual = 9.08757e-05, Final residual = 1.22396e-14, No Iterations 1
ExecutionTime = 0.62 s  ClockTime = 1 s

max/min T:    1/0.929426
max/min p:    0.4/0.0436962
max/min rho:  0.999943/0.115254
max/min U:    (2 0 0)/(-2 0 0)
Courant Number = 0.299798
deltaT = 3.40883e-05
Time = 0.00210591

diagonal:  Solving for rho, Initial residual = 0, Final residual = 0, No Iterations 0
diagonal:  Solving for rhoUx, Initial residual = 0, Final residual = 0, No Iterations 0
smoothSolver:  Solving for Ux, Initial residual = 2.25095e-07, Final residual = 2.73331e-17, No Iterations 1
diagonal:  Solving for rhoE, Initial residual = 0, Final residual = 0, No Iterations 0
smoothSolver:  Solving for e, Initial residual = 8.43053e-05, Final residual = 1.18483e-14, No Iterations 1
ExecutionTime = 0.63 s  ClockTime = 1 s

max/min T:    1/0.928308
max/min p:    0.4/0.0426227
max/min rho:  0.999943/0.113062
max/min U:    (2 0 0)/(-2 0 0)
Courant Number = 0.299798
deltaT = 3.40883e-05
Time = 0.00214

diagonal:  Solving for rho, Initial residual = 0, Final residual = 0, No Iterations 0
diagonal:  Solving for rhoUx, Initial residual = 0, Final residual = 0, No Iterations 0
smoothSolver:  Solving for Ux, Initial residual = 2.19785e-07, Final residual = 2.74897e-17, No Iterations 1
diagonal:  Solving for rhoE, Initial residual = 0, Final residual = 0, No Iterations 0
smoothSolver:  Solving for e, Initial residual = 7.86908e-05, Final residual = 1.1217e-14, No Iterations 1
ExecutionTime = 0.63 s  ClockTime = 1 s

max/min T:    1/0.92721
max/min p:    0.4/0.0415843
max/min rho:  0.999943/0.110932
max/min U:    (2 0 0)/(-2 0 0)
Courant Number = 0.299798
deltaT = 3.40883e-05
Time = 0.00217408

diagonal:  Solving for rho, Initial residual = 0, Final residual = 0, No Iterations 0
diagonal:  Solving for rhoUx, Initial residual = 0, Final residual = 0, No Iterations 0
smoothSolver:  Solving for Ux, Initial residual = 2.14684e-07, Final residual = 2.62566e-17, No Iterations 1
diagonal:  Solving for rhoE, Initial residual = 0, Final residual = 0, No Iterations 0
smoothSolver:  Solving for e, Initial residual = 7.36767e-05, Final residual = 1.09232e-14, No Iterations 1
ExecutionTime = 0.64 s  ClockTime = 1 s

max/min T:    1/0.92613
max/min p:    0.4/0.0405799
max/min rho:  0.999943/0.108864
max/min U:    (2 0 0)/(-2 0 0)
Courant Number = 0.299798
deltaT = 3.40883e-05
Time = 0.00220817

diagonal:  Solving for rho, Initial residual = 0, Final residual = 0, No Iterations 0
diagonal:  Solving for rhoUx, Initial residual = 0, Final residual = 0, No Iterations 0
smoothSolver:  Solving for Ux, Initial residual = 2.1022e-07, Final residual = 2.66341e-17, No Iterations 1
diagonal:  Solving for rhoE, Initial residual = 0, Final residual = 0, No Iterations 0
smoothSolver:  Solving for e, Initial residual = 6.90214e-05, Final residual = 1.06314e-14, No Iterations 1
ExecutionTime = 0.64 s  ClockTime = 1 s

max/min T:    1/0.925066
max/min p:    0.4/0.0396083
max/min rho:  0.999943/0.106855
max/min U:    (2 0 0)/(-2 0 0)
Courant Number = 0.299798
deltaT = 3.40883e-05
Time = 0.00224226

diagonal:  Solving for rho, Initial residual = 0, Final residual = 0, No Iterations 0
diagonal:  Solving for rhoUx, Initial residual = 0, Final residual = 0, No Iterations 0
smoothSolver:  Solving for Ux, Initial residual = 2.05831e-07, Final residual = 2.66383e-17, No Iterations 1
diagonal:  Solving for rhoE, Initial residual = 0, Final residual = 0, No Iterations 0
smoothSolver:  Solving for e, Initial residual = 6.47637e-05, Final residual = 1.02643e-14, No Iterations 1
ExecutionTime = 0.65 s  ClockTime = 1 s

max/min T:    1/0.921476
max/min p:    0.4/0.0386683
max/min rho:  0.999943/0.104903
max/min U:    (2 0 0)/(-2 0 0)
Courant Number = 0.299798
deltaT = 3.40883e-05
Time = 0.00227635

diagonal:  Solving for rho, Initial residual = 0, Final residual = 0, No Iterations 0
diagonal:  Solving for rhoUx, Initial residual = 0, Final residual = 0, No Iterations 0
smoothSolver:  Solving for Ux, Initial residual = 2.01515e-07, Final residual = 2.63142e-17, No Iterations 1
diagonal:  Solving for rhoE, Initial residual = 0, Final residual = 0, No Iterations 0
smoothSolver:  Solving for e, Initial residual = 6.10095e-05, Final residual = 9.97653e-15, No Iterations 1
ExecutionTime = 0.65 s  ClockTime = 1 s

max/min T:    1/0.916372
max/min p:    0.4/0.0377588
max/min rho:  0.999943/0.103006
max/min U:    (2 0 0)/(-2 0 0)
Courant Number = 0.299798
deltaT = 3.40883e-05
Time = 0.00231044

diagonal:  Solving for rho, Initial residual = 0, Final residual = 0, No Iterations 0
diagonal:  Solving for rhoUx, Initial residual = 0, Final residual = 0, No Iterations 0
smoothSolver:  Solving for Ux, Initial residual = 1.97315e-07, Final residual = 2.64447e-17, No Iterations 1
diagonal:  Solving for rhoE, Initial residual = 0, Final residual = 0, No Iterations 0
smoothSolver:  Solving for e, Initial residual = 5.747e-05, Final residual = 9.74471e-15, No Iterations 1
ExecutionTime = 0.66 s  ClockTime = 1 s

max/min T:    1/0.911321
max/min p:    0.4/0.0368787
max/min rho:  0.999943/0.101163
max/min U:    (2 0 0)/(-2 0 0)
Courant Number = 0.299798
deltaT = 3.40883e-05
Time = 0.00234453

diagonal:  Solving for rho, Initial residual = 0, Final residual = 0, No Iterations 0
diagonal:  Solving for rhoUx, Initial residual = 0, Final residual = 0, No Iterations 0
smoothSolver:  Solving for Ux, Initial residual = 1.93695e-07, Final residual = 2.61256e-17, No Iterations 1
diagonal:  Solving for rhoE, Initial residual = 0, Final residual = 0, No Iterations 0
smoothSolver:  Solving for e, Initial residual = 5.41254e-05, Final residual = 9.28054e-15, No Iterations 1
ExecutionTime = 0.66 s  ClockTime = 1 s

max/min T:    1/0.906323
max/min p:    0.4/0.036027
max/min rho:  0.999943/0.099371
max/min U:    (2 0 0)/(-2 0 0)
Courant Number = 0.299798
deltaT = 3.40883e-05
Time = 0.00237861

diagonal:  Solving for rho, Initial residual = 0, Final residual = 0, No Iterations 0
diagonal:  Solving for rhoUx, Initial residual = 0, Final residual = 0, No Iterations 0
smoothSolver:  Solving for Ux, Initial residual = 1.90113e-07, Final residual = 2.68467e-17, No Iterations 1
diagonal:  Solving for rhoE, Initial residual = 0, Final residual = 0, No Iterations 0
smoothSolver:  Solving for e, Initial residual = 5.11463e-05, Final residual = 8.83748e-15, No Iterations 1
ExecutionTime = 0.67 s  ClockTime = 1 s

max/min T:    1/0.901381
max/min p:    0.4/0.0352026
max/min rho:  0.999943/0.0976297
max/min U:    (2 0 0)/(-2 0 0)
Courant Number = 0.299798
deltaT = 3.40883e-05
Time = 0.0024127

diagonal:  Solving for rho, Initial residual = 0, Final residual = 0, No Iterations 0
diagonal:  Solving for rhoUx, Initial residual = 0, Final residual = 0, No Iterations 0
smoothSolver:  Solving for Ux, Initial residual = 1.86571e-07, Final residual = 2.60647e-17, No Iterations 1
diagonal:  Solving for rhoE, Initial residual = 0, Final residual = 0, No Iterations 0
smoothSolver:  Solving for e, Initial residual = 4.85702e-05, Final residual = 8.68197e-15, No Iterations 1
ExecutionTime = 0.67 s  ClockTime = 1 s

max/min T:    1/0.896493
max/min p:    0.4/0.0344047
max/min rho:  0.999943/0.095937
max/min U:    (2 0 0)/(-2 0 0)
Courant Number = 0.299798
deltaT = 3.40883e-05
Time = 0.00244679

diagonal:  Solving for rho, Initial residual = 0, Final residual = 0, No Iterations 0
diagonal:  Solving for rhoUx, Initial residual = 0, Final residual = 0, No Iterations 0
smoothSolver:  Solving for Ux, Initial residual = 1.83071e-07, Final residual = 2.6139e-17, No Iterations 1
diagonal:  Solving for rhoE, Initial residual = 0, Final residual = 0, No Iterations 0
smoothSolver:  Solving for e, Initial residual = 4.61071e-05, Final residual = 8.51393e-15, No Iterations 1
ExecutionTime = 0.68 s  ClockTime = 1 s

max/min T:    1/0.89166
max/min p:    0.4/0.0336322
max/min rho:  0.999943/0.0942913
max/min U:    (2 0 0)/(-2 0 0)
Courant Number = 0.299798
deltaT = 3.40883e-05
Time = 0.00248088

diagonal:  Solving for rho, Initial residual = 0, Final residual = 0, No Iterations 0
diagonal:  Solving for rhoUx, Initial residual = 0, Final residual = 0, No Iterations 0
smoothSolver:  Solving for Ux, Initial residual = 1.80107e-07, Final residual = 2.61548e-17, No Iterations 1
diagonal:  Solving for rhoE, Initial residual = 0, Final residual = 0, No Iterations 0
smoothSolver:  Solving for e, Initial residual = 4.37516e-05, Final residual = 8.27176e-15, No Iterations 1
ExecutionTime = 0.69 s  ClockTime = 1 s

max/min T:    1/0.886882
max/min p:    0.4/0.0328843
max/min rho:  0.999943/0.0926912
max/min U:    (2 0 0)/(-2 0 0)
Courant Number = 0.299798
deltaT = 3.40883e-05
Time = 0.00251497

diagonal:  Solving for rho, Initial residual = 0, Final residual = 0, No Iterations 0
diagonal:  Solving for rhoUx, Initial residual = 0, Final residual = 0, No Iterations 0
smoothSolver:  Solving for Ux, Initial residual = 1.77157e-07, Final residual = 2.65733e-17, No Iterations 1
diagonal:  Solving for rhoE, Initial residual = 0, Final residual = 0, No Iterations 0
smoothSolver:  Solving for e, Initial residual = 4.16812e-05, Final residual = 7.88257e-15, No Iterations 1
ExecutionTime = 0.69 s  ClockTime = 1 s

max/min T:    1/0.88216
max/min p:    0.4/0.0321602
max/min rho:  0.999943/0.0911353
max/min U:    (2 0 0)/(-2 0 0)
Courant Number = 0.299798
deltaT = 3.40883e-05
Time = 0.00254906

diagonal:  Solving for rho, Initial residual = 0, Final residual = 0, No Iterations 0
diagonal:  Solving for rhoUx, Initial residual = 0, Final residual = 0, No Iterations 0
smoothSolver:  Solving for Ux, Initial residual = 1.7422e-07, Final residual = 2.65953e-17, No Iterations 1
diagonal:  Solving for rhoE, Initial residual = 0, Final residual = 0, No Iterations 0
smoothSolver:  Solving for e, Initial residual = 3.97456e-05, Final residual = 7.87182e-15, No Iterations 1
ExecutionTime = 0.7 s  ClockTime = 1 s

max/min T:    1/0.877493
max/min p:    0.4/0.0314589
max/min rho:  0.999943/0.0896221
max/min U:    (2 0 0)/(-2 0 0)
Courant Number = 0.299798
deltaT = 3.40883e-05
Time = 0.00258314

diagonal:  Solving for rho, Initial residual = 0, Final residual = 0, No Iterations 0
diagonal:  Solving for rhoUx, Initial residual = 0, Final residual = 0, No Iterations 0
smoothSolver:  Solving for Ux, Initial residual = 1.713e-07, Final residual = 2.64914e-17, No Iterations 1
diagonal:  Solving for rhoE, Initial residual = 0, Final residual = 0, No Iterations 0
smoothSolver:  Solving for e, Initial residual = 3.80605e-05, Final residual = 7.44523e-15, No Iterations 1
ExecutionTime = 0.7 s  ClockTime = 1 s

max/min T:    1/0.872375
max/min p:    0.4/0.0307797
max/min rho:  0.999943/0.0881503
max/min U:    (2 0 0)/(-2 0 0)
Courant Number = 0.299798
deltaT = 3.40883e-05
Time = 0.00261723

diagonal:  Solving for rho, Initial residual = 0, Final residual = 0, No Iterations 0
diagonal:  Solving for rhoUx, Initial residual = 0, Final residual = 0, No Iterations 0
smoothSolver:  Solving for Ux, Initial residual = 1.68823e-07, Final residual = 2.65423e-17, No Iterations 1
diagonal:  Solving for rhoE, Initial residual = 0, Final residual = 0, No Iterations 0
smoothSolver:  Solving for e, Initial residual = 3.67587e-05, Final residual = 7.30152e-15, No Iterations 1
ExecutionTime = 0.71 s  ClockTime = 1 s

max/min T:    1/0.866809
max/min p:    0.4/0.0301218
max/min rho:  0.999943/0.0867187
max/min U:    (2 0 0)/(-2 0 0)
Courant Number = 0.299798
deltaT = 3.40883e-05
Time = 0.00265132

diagonal:  Solving for rho, Initial residual = 0, Final residual = 0, No Iterations 0
diagonal:  Solving for rhoUx, Initial residual = 0, Final residual = 0, No Iterations 0
smoothSolver:  Solving for Ux, Initial residual = 1.66369e-07, Final residual = 2.65854e-17, No Iterations 1
diagonal:  Solving for rhoE, Initial residual = 0, Final residual = 0, No Iterations 0
smoothSolver:  Solving for e, Initial residual = 3.57152e-05, Final residual = 7.17242e-15, No Iterations 1
ExecutionTime = 0.72 s  ClockTime = 1 s

max/min T:    1/0.861341
max/min p:    0.4/0.0294844
max/min rho:  0.999943/0.085326
max/min U:    (2 0 0)/(-2 0 0)
Courant Number = 0.299798
deltaT = 3.40883e-05
Time = 0.00268541

diagonal:  Solving for rho, Initial residual = 0, Final residual = 0, No Iterations 0
diagonal:  Solving for rhoUx, Initial residual = 0, Final residual = 0, No Iterations 0
smoothSolver:  Solving for Ux, Initial residual = 1.63912e-07, Final residual = 2.69861e-17, No Iterations 1
diagonal:  Solving for rhoE, Initial residual = 0, Final residual = 0, No Iterations 0
smoothSolver:  Solving for e, Initial residual = 3.46781e-05, Final residual = 6.82203e-15, No Iterations 1
ExecutionTime = 0.72 s  ClockTime = 1 s

max/min T:    1/0.855969
max/min p:    0.4/0.0288669
max/min rho:  0.999943/0.083971
max/min U:    (2 0 0)/(-2 0 0)
Courant Number = 0.299798
deltaT = 3.40883e-05
Time = 0.0027195

diagonal:  Solving for rho, Initial residual = 0, Final residual = 0, No Iterations 0
diagonal:  Solving for rhoUx, Initial residual = 0, Final residual = 0, No Iterations 0
smoothSolver:  Solving for Ux, Initial residual = 1.61455e-07, Final residual = 2.63967e-17, No Iterations 1
diagonal:  Solving for rhoE, Initial residual = 0, Final residual = 0, No Iterations 0
smoothSolver:  Solving for e, Initial residual = 3.36286e-05, Final residual = 6.76594e-15, No Iterations 1
ExecutionTime = 0.74 s  ClockTime = 1 s

max/min T:    1/0.850692
max/min p:    0.4/0.0282686
max/min rho:  0.999943/0.0826525
max/min U:    (2 0 0)/(-2 0 0)
Courant Number = 0.299798
deltaT = 3.40883e-05
Time = 0.00275359

diagonal:  Solving for rho, Initial residual = 0, Final residual = 0, No Iterations 0
diagonal:  Solving for rhoUx, Initial residual = 0, Final residual = 0, No Iterations 0
smoothSolver:  Solving for Ux, Initial residual = 1.59362e-07, Final residual = 2.70413e-17, No Iterations 1
diagonal:  Solving for rhoE, Initial residual = 0, Final residual = 0, No Iterations 0
smoothSolver:  Solving for e, Initial residual = 3.26034e-05, Final residual = 6.51805e-15, No Iterations 1
ExecutionTime = 0.74 s  ClockTime = 1 s

max/min T:    1/0.84551
max/min p:    0.4/0.0276887
max/min rho:  0.999943/0.0813695
max/min U:    (2 0 0)/(-2 0 0)
Courant Number = 0.299798
deltaT = 3.40883e-05
Time = 0.00278767

diagonal:  Solving for rho, Initial residual = 0, Final residual = 0, No Iterations 0
diagonal:  Solving for rhoUx, Initial residual = 0, Final residual = 0, No Iterations 0
smoothSolver:  Solving for Ux, Initial residual = 1.57302e-07, Final residual = 2.68989e-17, No Iterations 1
diagonal:  Solving for rhoE, Initial residual = 0, Final residual = 0, No Iterations 0
smoothSolver:  Solving for e, Initial residual = 3.17241e-05, Final residual = 6.49054e-15, No Iterations 1
ExecutionTime = 0.75 s  ClockTime = 1 s

max/min T:    1/0.840421
max/min p:    0.4/0.0271267
max/min rho:  0.999943/0.0801208
max/min U:    (2 0 0)/(-2 0 0)
Courant Number = 0.299798
deltaT = 3.40883e-05
Time = 0.00282176

diagonal:  Solving for rho, Initial residual = 0, Final residual = 0, No Iterations 0
diagonal:  Solving for rhoUx, Initial residual = 0, Final residual = 0, No Iterations 0
smoothSolver:  Solving for Ux, Initial residual = 1.55227e-07, Final residual = 2.69254e-17, No Iterations 1
diagonal:  Solving for rhoE, Initial residual = 0, Final residual = 0, No Iterations 0
smoothSolver:  Solving for e, Initial residual = 3.08315e-05, Final residual = 6.48703e-15, No Iterations 1
ExecutionTime = 0.75 s  ClockTime = 1 s

max/min T:    1/0.835424
max/min p:    0.4/0.0265819
max/min rho:  0.999943/0.0789053
max/min U:    (2 0 0)/(-2 0 0)
Courant Number = 0.299798
deltaT = 3.40883e-05
Time = 0.00285585

diagonal:  Solving for rho, Initial residual = 0, Final residual = 0, No Iterations 0
diagonal:  Solving for rhoUx, Initial residual = 0, Final residual = 0, No Iterations 0
smoothSolver:  Solving for Ux, Initial residual = 1.5314e-07, Final residual = 2.71573e-17, No Iterations 1
diagonal:  Solving for rhoE, Initial residual = 0, Final residual = 0, No Iterations 0
smoothSolver:  Solving for e, Initial residual = 2.993e-05, Final residual = 6.22083e-15, No Iterations 1
ExecutionTime = 0.76 s  ClockTime = 1 s

max/min T:    1/0.830518
max/min p:    0.4/0.0260537
max/min rho:  0.999943/0.0777221
max/min U:    (2 0 0)/(-2 0 0)
Courant Number = 0.299798
deltaT = 3.40883e-05
Time = 0.00288994

diagonal:  Solving for rho, Initial residual = 0, Final residual = 0, No Iterations 0
diagonal:  Solving for rhoUx, Initial residual = 0, Final residual = 0, No Iterations 0
smoothSolver:  Solving for Ux, Initial residual = 1.51356e-07, Final residual = 2.68751e-17, No Iterations 1
diagonal:  Solving for rhoE, Initial residual = 0, Final residual = 0, No Iterations 0
[...]
smoothSolver:  Solving for e, Initial residual = 5.90736e-08, Final residual = 9.24539e-17, No Iterations 1
ExecutionTime = 26.46 s  ClockTime = 27 s

max/min T:    1/0.32122
max/min p:    0.4/0.00303366
max/min rho:  0.999943/0.0161083
max/min U:    (2 0 0)/(-2 0 0)
Courant Number = 0.299958
deltaT = 3.41064e-05
Time = 0.149079

diagonal:  Solving for rho, Initial residual = 0, Final residual = 0, No Iterations 0
diagonal:  Solving for rhoUx, Initial residual = 0, Final residual = 0, No Iterations 0
smoothSolver:  Solving for Ux, Initial residual = 2.29263e-08, Final residual = 2.76567e-17, No Iterations 1
diagonal:  Solving for rhoE, Initial residual = 0, Final residual = 0, No Iterations 0
smoothSolver:  Solving for e, Initial residual = 5.90804e-08, Final residual = 9.43659e-17, No Iterations 1
ExecutionTime = 26.46 s  ClockTime = 27 s

max/min T:    1/0.321206
max/min p:    0.4/0.00303348
max/min rho:  0.999943/0.0161076
max/min U:    (2 0 0)/(-2 0 0)
Courant Number = 0.299958
deltaT = 3.41064e-05
Time = 0.149113

diagonal:  Solving for rho, Initial residual = 0, Final residual = 0, No Iterations 0
diagonal:  Solving for rhoUx, Initial residual = 0, Final residual = 0, No Iterations 0
smoothSolver:  Solving for Ux, Initial residual = 2.29318e-08, Final residual = 2.75282e-17, No Iterations 1
diagonal:  Solving for rhoE, Initial residual = 0, Final residual = 0, No Iterations 0
smoothSolver:  Solving for e, Initial residual = 5.90871e-08, Final residual = 9.31791e-17, No Iterations 1
ExecutionTime = 26.47 s  ClockTime = 27 s

max/min T:    1/0.321192
max/min p:    0.4/0.0030333
max/min rho:  0.999943/0.016107
max/min U:    (2 0 0)/(-2 0 0)
Courant Number = 0.299958
deltaT = 3.41064e-05
Time = 0.149147

diagonal:  Solving for rho, Initial residual = 0, Final residual = 0, No Iterations 0
diagonal:  Solving for rhoUx, Initial residual = 0, Final residual = 0, No Iterations 0
smoothSolver:  Solving for Ux, Initial residual = 2.29372e-08, Final residual = 2.7716e-17, No Iterations 1
diagonal:  Solving for rhoE, Initial residual = 0, Final residual = 0, No Iterations 0
smoothSolver:  Solving for e, Initial residual = 5.90936e-08, Final residual = 9.50515e-17, No Iterations 1
ExecutionTime = 26.47 s  ClockTime = 27 s

max/min T:    1/0.321178
max/min p:    0.4/0.00303313
max/min rho:  0.999943/0.0161063
max/min U:    (2 0 0)/(-2 0 0)
Courant Number = 0.299958
deltaT = 3.41064e-05
Time = 0.149181

diagonal:  Solving for rho, Initial residual = 0, Final residual = 0, No Iterations 0
diagonal:  Solving for rhoUx, Initial residual = 0, Final residual = 0, No Iterations 0
smoothSolver:  Solving for Ux, Initial residual = 2.29428e-08, Final residual = 2.76428e-17, No Iterations 1
diagonal:  Solving for rhoE, Initial residual = 0, Final residual = 0, No Iterations 0
smoothSolver:  Solving for e, Initial residual = 5.91001e-08, Final residual = 9.2278e-17, No Iterations 1
ExecutionTime = 26.48 s  ClockTime = 27 s

max/min T:    1/0.321164
max/min p:    0.4/0.00303295
max/min rho:  0.999943/0.0161056
max/min U:    (2 0 0)/(-2 0 0)
Courant Number = 0.299958
deltaT = 3.41064e-05
Time = 0.149216

diagonal:  Solving for rho, Initial residual = 0, Final residual = 0, No Iterations 0
diagonal:  Solving for rhoUx, Initial residual = 0, Final residual = 0, No Iterations 0
smoothSolver:  Solving for Ux, Initial residual = 2.29484e-08, Final residual = 2.73367e-17, No Iterations 1
diagonal:  Solving for rhoE, Initial residual = 0, Final residual = 0, No Iterations 0
smoothSolver:  Solving for e, Initial residual = 5.91069e-08, Final residual = 9.42316e-17, No Iterations 1
ExecutionTime = 26.49 s  ClockTime = 27 s

max/min T:    1/0.32115
max/min p:    0.4/0.00303277
max/min rho:  0.999943/0.0161049
max/min U:    (2 0 0)/(-2 0 0)
Courant Number = 0.299958
deltaT = 3.41064e-05
Time = 0.14925

diagonal:  Solving for rho, Initial residual = 0, Final residual = 0, No Iterations 0
diagonal:  Solving for rhoUx, Initial residual = 0, Final residual = 0, No Iterations 0
smoothSolver:  Solving for Ux, Initial residual = 2.29539e-08, Final residual = 2.81452e-17, No Iterations 1
diagonal:  Solving for rhoE, Initial residual = 0, Final residual = 0, No Iterations 0
smoothSolver:  Solving for e, Initial residual = 5.91136e-08, Final residual = 9.25475e-17, No Iterations 1
ExecutionTime = 26.49 s  ClockTime = 27 s

max/min T:    1/0.321136
max/min p:    0.4/0.00303259
max/min rho:  0.999943/0.0161043
max/min U:    (2 0 0)/(-2 0 0)
Courant Number = 0.299958
deltaT = 3.41064e-05
Time = 0.149284

diagonal:  Solving for rho, Initial residual = 0, Final residual = 0, No Iterations 0
diagonal:  Solving for rhoUx, Initial residual = 0, Final residual = 0, No Iterations 0
smoothSolver:  Solving for Ux, Initial residual = 2.29594e-08, Final residual = 2.68579e-17, No Iterations 1
diagonal:  Solving for rhoE, Initial residual = 0, Final residual = 0, No Iterations 0
smoothSolver:  Solving for e, Initial residual = 5.91201e-08, Final residual = 9.31796e-17, No Iterations 1
ExecutionTime = 26.5 s  ClockTime = 27 s

max/min T:    1/0.321122
max/min p:    0.4/0.00303241
max/min rho:  0.999943/0.0161036
max/min U:    (2 0 0)/(-2 0 0)
Courant Number = 0.299958
deltaT = 3.41064e-05
Time = 0.149318

diagonal:  Solving for rho, Initial residual = 0, Final residual = 0, No Iterations 0
diagonal:  Solving for rhoUx, Initial residual = 0, Final residual = 0, No Iterations 0
smoothSolver:  Solving for Ux, Initial residual = 2.2965e-08, Final residual = 2.8016e-17, No Iterations 1
diagonal:  Solving for rhoE, Initial residual = 0, Final residual = 0, No Iterations 0
smoothSolver:  Solving for e, Initial residual = 5.9127e-08, Final residual = 9.48279e-17, No Iterations 1
ExecutionTime = 26.5 s  ClockTime = 27 s

max/min T:    1/0.321108
max/min p:    0.4/0.00303223
max/min rho:  0.999943/0.0161029
max/min U:    (2 0 0)/(-2 0 0)
Courant Number = 0.299958
deltaT = 3.41064e-05
Time = 0.149352

diagonal:  Solving for rho, Initial residual = 0, Final residual = 0, No Iterations 0
diagonal:  Solving for rhoUx, Initial residual = 0, Final residual = 0, No Iterations 0
smoothSolver:  Solving for Ux, Initial residual = 2.29706e-08, Final residual = 2.77944e-17, No Iterations 1
diagonal:  Solving for rhoE, Initial residual = 0, Final residual = 0, No Iterations 0
smoothSolver:  Solving for e, Initial residual = 5.91338e-08, Final residual = 9.17658e-17, No Iterations 1
ExecutionTime = 26.51 s  ClockTime = 27 s

max/min T:    1/0.321094
max/min p:    0.4/0.00303205
max/min rho:  0.999943/0.0161022
max/min U:    (2 0 0)/(-2 0 0)
Courant Number = 0.299958
deltaT = 3.41064e-05
Time = 0.149386

diagonal:  Solving for rho, Initial residual = 0, Final residual = 0, No Iterations 0
diagonal:  Solving for rhoUx, Initial residual = 0, Final residual = 0, No Iterations 0
smoothSolver:  Solving for Ux, Initial residual = 2.2976e-08, Final residual = 2.82183e-17, No Iterations 1
diagonal:  Solving for rhoE, Initial residual = 0, Final residual = 0, No Iterations 0
smoothSolver:  Solving for e, Initial residual = 5.91405e-08, Final residual = 9.50332e-17, No Iterations 1
ExecutionTime = 26.52 s  ClockTime = 27 s

max/min T:    1/0.32108
max/min p:    0.4/0.00303188
max/min rho:  0.999943/0.0161016
max/min U:    (2 0 0)/(-2 0 0)
Courant Number = 0.299958
deltaT = 3.41064e-05
Time = 0.14942

diagonal:  Solving for rho, Initial residual = 0, Final residual = 0, No Iterations 0
diagonal:  Solving for rhoUx, Initial residual = 0, Final residual = 0, No Iterations 0
smoothSolver:  Solving for Ux, Initial residual = 2.29817e-08, Final residual = 2.90953e-17, No Iterations 1
diagonal:  Solving for rhoE, Initial residual = 0, Final residual = 0, No Iterations 0
smoothSolver:  Solving for e, Initial residual = 5.91472e-08, Final residual = 9.69615e-17, No Iterations 1
ExecutionTime = 26.52 s  ClockTime = 27 s

max/min T:    1/0.321065
max/min p:    0.4/0.0030317
max/min rho:  0.999943/0.0161009
max/min U:    (2 0 0)/(-2 0 0)
Courant Number = 0.299958
deltaT = 3.41064e-05
Time = 0.149454

diagonal:  Solving for rho, Initial residual = 0, Final residual = 0, No Iterations 0
diagonal:  Solving for rhoUx, Initial residual = 0, Final residual = 0, No Iterations 0
smoothSolver:  Solving for Ux, Initial residual = 2.29873e-08, Final residual = 2.80886e-17, No Iterations 1
diagonal:  Solving for rhoE, Initial residual = 0, Final residual = 0, No Iterations 0
smoothSolver:  Solving for e, Initial residual = 5.91542e-08, Final residual = 9.29787e-17, No Iterations 1
ExecutionTime = 26.53 s  ClockTime = 27 s

max/min T:    1/0.321051
max/min p:    0.4/0.00303152
max/min rho:  0.999943/0.0161002
max/min U:    (2 0 0)/(-2 0 0)
Courant Number = 0.299958
deltaT = 3.41064e-05
Time = 0.149488

diagonal:  Solving for rho, Initial residual = 0, Final residual = 0, No Iterations 0
diagonal:  Solving for rhoUx, Initial residual = 0, Final residual = 0, No Iterations 0
smoothSolver:  Solving for Ux, Initial residual = 2.29928e-08, Final residual = 2.77495e-17, No Iterations 1
diagonal:  Solving for rhoE, Initial residual = 0, Final residual = 0, No Iterations 0
smoothSolver:  Solving for e, Initial residual = 5.9161e-08, Final residual = 9.29884e-17, No Iterations 1
ExecutionTime = 26.53 s  ClockTime = 27 s

max/min T:    1/0.321037
max/min p:    0.4/0.00303134
max/min rho:  0.999943/0.0160995
max/min U:    (2 0 0)/(-2 0 0)
Courant Number = 0.299958
deltaT = 3.41064e-05
Time = 0.149523

diagonal:  Solving for rho, Initial residual = 0, Final residual = 0, No Iterations 0
diagonal:  Solving for rhoUx, Initial residual = 0, Final residual = 0, No Iterations 0
smoothSolver:  Solving for Ux, Initial residual = 2.29984e-08, Final residual = 2.75842e-17, No Iterations 1
diagonal:  Solving for rhoE, Initial residual = 0, Final residual = 0, No Iterations 0
smoothSolver:  Solving for e, Initial residual = 5.91677e-08, Final residual = 9.40843e-17, No Iterations 1
ExecutionTime = 26.54 s  ClockTime = 27 s

max/min T:    1/0.321023
max/min p:    0.4/0.00303116
max/min rho:  0.999943/0.0160989
max/min U:    (2 0 0)/(-2 0 0)
Courant Number = 0.299958
deltaT = 3.41064e-05
Time = 0.149557

diagonal:  Solving for rho, Initial residual = 0, Final residual = 0, No Iterations 0
diagonal:  Solving for rhoUx, Initial residual = 0, Final residual = 0, No Iterations 0
smoothSolver:  Solving for Ux, Initial residual = 2.30041e-08, Final residual = 2.83508e-17, No Iterations 1
diagonal:  Solving for rhoE, Initial residual = 0, Final residual = 0, No Iterations 0
smoothSolver:  Solving for e, Initial residual = 5.91747e-08, Final residual = 8.92459e-17, No Iterations 1
ExecutionTime = 26.54 s  ClockTime = 27 s

max/min T:    1/0.321009
max/min p:    0.4/0.00303098
max/min rho:  0.999943/0.0160982
max/min U:    (2 0 0)/(-2 0 0)
Courant Number = 0.299958
deltaT = 3.41064e-05
Time = 0.149591

diagonal:  Solving for rho, Initial residual = 0, Final residual = 0, No Iterations 0
diagonal:  Solving for rhoUx, Initial residual = 0, Final residual = 0, No Iterations 0
smoothSolver:  Solving for Ux, Initial residual = 2.30097e-08, Final residual = 2.70213e-17, No Iterations 1
diagonal:  Solving for rhoE, Initial residual = 0, Final residual = 0, No Iterations 0
smoothSolver:  Solving for e, Initial residual = 5.91817e-08, Final residual = 9.28162e-17, No Iterations 1
ExecutionTime = 26.55 s  ClockTime = 27 s

max/min T:    1/0.320995
max/min p:    0.4/0.00303081
max/min rho:  0.999943/0.0160975
max/min U:    (2 0 0)/(-2 0 0)
Courant Number = 0.299958
deltaT = 3.41064e-05
Time = 0.149625

diagonal:  Solving for rho, Initial residual = 0, Final residual = 0, No Iterations 0
diagonal:  Solving for rhoUx, Initial residual = 0, Final residual = 0, No Iterations 0
smoothSolver:  Solving for Ux, Initial residual = 2.30152e-08, Final residual = 2.82542e-17, No Iterations 1
diagonal:  Solving for rhoE, Initial residual = 0, Final residual = 0, No Iterations 0
smoothSolver:  Solving for e, Initial residual = 5.91885e-08, Final residual = 9.13967e-17, No Iterations 1
ExecutionTime = 26.55 s  ClockTime = 27 s

max/min T:    1/0.320981
max/min p:    0.4/0.00303063
max/min rho:  0.999943/0.0160969
max/min U:    (2 0 0)/(-2 0 0)
Courant Number = 0.299958
deltaT = 3.41064e-05
Time = 0.149659

diagonal:  Solving for rho, Initial residual = 0, Final residual = 0, No Iterations 0
diagonal:  Solving for rhoUx, Initial residual = 0, Final residual = 0, No Iterations 0
smoothSolver:  Solving for Ux, Initial residual = 2.30209e-08, Final residual = 2.72788e-17, No Iterations 1
diagonal:  Solving for rhoE, Initial residual = 0, Final residual = 0, No Iterations 0
smoothSolver:  Solving for e, Initial residual = 5.91954e-08, Final residual = 9.14724e-17, No Iterations 1
ExecutionTime = 26.56 s  ClockTime = 27 s

max/min T:    1/0.320967
max/min p:    0.4/0.00303045
max/min rho:  0.999943/0.0160962
max/min U:    (2 0 0)/(-2 0 0)
Courant Number = 0.299958
deltaT = 3.41064e-05
Time = 0.149693

diagonal:  Solving for rho, Initial residual = 0, Final residual = 0, No Iterations 0
diagonal:  Solving for rhoUx, Initial residual = 0, Final residual = 0, No Iterations 0
smoothSolver:  Solving for Ux, Initial residual = 2.30265e-08, Final residual = 2.73837e-17, No Iterations 1
diagonal:  Solving for rhoE, Initial residual = 0, Final residual = 0, No Iterations 0
smoothSolver:  Solving for e, Initial residual = 5.92025e-08, Final residual = 9.46405e-17, No Iterations 1
ExecutionTime = 26.56 s  ClockTime = 27 s

max/min T:    1/0.320953
max/min p:    0.4/0.00303027
max/min rho:  0.999943/0.0160955
max/min U:    (2 0 0)/(-2 0 0)
Courant Number = 0.299958
deltaT = 3.41064e-05
Time = 0.149727

diagonal:  Solving for rho, Initial residual = 0, Final residual = 0, No Iterations 0
diagonal:  Solving for rhoUx, Initial residual = 0, Final residual = 0, No Iterations 0
smoothSolver:  Solving for Ux, Initial residual = 2.30321e-08, Final residual = 2.81343e-17, No Iterations 1
diagonal:  Solving for rhoE, Initial residual = 0, Final residual = 0, No Iterations 0
smoothSolver:  Solving for e, Initial residual = 5.92095e-08, Final residual = 9.23733e-17, No Iterations 1
ExecutionTime = 26.57 s  ClockTime = 27 s

max/min T:    1/0.320939
max/min p:    0.4/0.0030301
max/min rho:  0.999943/0.0160948
max/min U:    (2 0 0)/(-2 0 0)
Courant Number = 0.299958
deltaT = 3.41064e-05
Time = 0.149761

diagonal:  Solving for rho, Initial residual = 0, Final residual = 0, No Iterations 0
diagonal:  Solving for rhoUx, Initial residual = 0, Final residual = 0, No Iterations 0
smoothSolver:  Solving for Ux, Initial residual = 2.30377e-08, Final residual = 2.80108e-17, No Iterations 1
diagonal:  Solving for rhoE, Initial residual = 0, Final residual = 0, No Iterations 0
smoothSolver:  Solving for e, Initial residual = 5.92163e-08, Final residual = 9.2521e-17, No Iterations 1
ExecutionTime = 26.59 s  ClockTime = 27 s

max/min T:    1/0.320925
max/min p:    0.4/0.00302992
max/min rho:  0.999943/0.0160942
max/min U:    (2 0 0)/(-2 0 0)
Courant Number = 0.299958
deltaT = 3.41064e-05
Time = 0.149795

diagonal:  Solving for rho, Initial residual = 0, Final residual = 0, No Iterations 0
diagonal:  Solving for rhoUx, Initial residual = 0, Final residual = 0, No Iterations 0
smoothSolver:  Solving for Ux, Initial residual = 2.30434e-08, Final residual = 2.8165e-17, No Iterations 1
diagonal:  Solving for rhoE, Initial residual = 0, Final residual = 0, No Iterations 0
smoothSolver:  Solving for e, Initial residual = 5.92235e-08, Final residual = 9.41954e-17, No Iterations 1
ExecutionTime = 26.59 s  ClockTime = 27 s

max/min T:    1/0.320911
max/min p:    0.4/0.00302974
max/min rho:  0.999943/0.0160935
max/min U:    (2 0 0)/(-2 0 0)
Courant Number = 0.299958
deltaT = 3.41064e-05
Time = 0.149829

diagonal:  Solving for rho, Initial residual = 0, Final residual = 0, No Iterations 0
diagonal:  Solving for rhoUx, Initial residual = 0, Final residual = 0, No Iterations 0
smoothSolver:  Solving for Ux, Initial residual = 2.30491e-08, Final residual = 2.79621e-17, No Iterations 1
diagonal:  Solving for rhoE, Initial residual = 0, Final residual = 0, No Iterations 0
smoothSolver:  Solving for e, Initial residual = 5.92307e-08, Final residual = 8.81767e-17, No Iterations 1
ExecutionTime = 26.6 s  ClockTime = 27 s

max/min T:    1/0.320897
max/min p:    0.4/0.00302956
max/min rho:  0.999943/0.0160928
max/min U:    (2 0 0)/(-2 0 0)
Courant Number = 0.299958
deltaT = 3.41064e-05
Time = 0.149864

diagonal:  Solving for rho, Initial residual = 0, Final residual = 0, No Iterations 0
diagonal:  Solving for rhoUx, Initial residual = 0, Final residual = 0, No Iterations 0
smoothSolver:  Solving for Ux, Initial residual = 2.30547e-08, Final residual = 2.79967e-17, No Iterations 1
diagonal:  Solving for rhoE, Initial residual = 0, Final residual = 0, No Iterations 0
smoothSolver:  Solving for e, Initial residual = 5.92377e-08, Final residual = 9.42139e-17, No Iterations 1
ExecutionTime = 26.6 s  ClockTime = 27 s

max/min T:    1/0.320883
max/min p:    0.4/0.00302939
max/min rho:  0.999943/0.0160921
max/min U:    (2 0 0)/(-2 0 0)
Courant Number = 0.299958
deltaT = 3.41064e-05
Time = 0.149898

diagonal:  Solving for rho, Initial residual = 0, Final residual = 0, No Iterations 0
diagonal:  Solving for rhoUx, Initial residual = 0, Final residual = 0, No Iterations 0
smoothSolver:  Solving for Ux, Initial residual = 2.30604e-08, Final residual = 2.83475e-17, No Iterations 1
diagonal:  Solving for rhoE, Initial residual = 0, Final residual = 0, No Iterations 0
smoothSolver:  Solving for e, Initial residual = 5.92447e-08, Final residual = 9.54802e-17, No Iterations 1
ExecutionTime = 26.61 s  ClockTime = 27 s

max/min T:    1/0.320869
max/min p:    0.4/0.00302921
max/min rho:  0.999943/0.0160915
max/min U:    (2 0 0)/(-2 0 0)
Courant Number = 0.299958
deltaT = 3.41064e-05
Time = 0.149932

diagonal:  Solving for rho, Initial residual = 0, Final residual = 0, No Iterations 0
diagonal:  Solving for rhoUx, Initial residual = 0, Final residual = 0, No Iterations 0
smoothSolver:  Solving for Ux, Initial residual = 2.30661e-08, Final residual = 2.67179e-17, No Iterations 1
diagonal:  Solving for rhoE, Initial residual = 0, Final residual = 0, No Iterations 0
smoothSolver:  Solving for e, Initial residual = 5.9252e-08, Final residual = 9.16892e-17, No Iterations 1
ExecutionTime = 26.62 s  ClockTime = 27 s

max/min T:    1/0.320856
max/min p:    0.4/0.00302903
max/min rho:  0.999943/0.0160908
max/min U:    (2 0 0)/(-2 0 0)
Courant Number = 0.299958
deltaT = 3.41064e-05
Time = 0.149966

diagonal:  Solving for rho, Initial residual = 0, Final residual = 0, No Iterations 0
diagonal:  Solving for rhoUx, Initial residual = 0, Final residual = 0, No Iterations 0
smoothSolver:  Solving for Ux, Initial residual = 2.30717e-08, Final residual = 2.82123e-17, No Iterations 1
diagonal:  Solving for rhoE, Initial residual = 0, Final residual = 0, No Iterations 0
smoothSolver:  Solving for e, Initial residual = 5.92591e-08, Final residual = 9.2988e-17, No Iterations 1
ExecutionTime = 26.62 s  ClockTime = 27 s

max/min T:    1/0.320842
max/min p:    0.4/0.00302885
max/min rho:  0.999943/0.0160901
max/min U:    (2 0 0)/(-2 0 0)
Courant Number = 0.299958
deltaT = 3.41064e-05
Time = 0.15

diagonal:  Solving for rho, Initial residual = 0, Final residual = 0, No Iterations 0
diagonal:  Solving for rhoUx, Initial residual = 0, Final residual = 0, No Iterations 0
smoothSolver:  Solving for Ux, Initial residual = 2.30774e-08, Final residual = 2.75221e-17, No Iterations 1
diagonal:  Solving for rhoE, Initial residual = 0, Final residual = 0, No Iterations 0
smoothSolver:  Solving for e, Initial residual = 5.92661e-08, Final residual = 9.40284e-17, No Iterations 1
ExecutionTime = 26.65 s  ClockTime = 27 s

max/min T:    1/0.320828
max/min p:    0.4/0.00302868
max/min rho:  0.999943/0.0160895
max/min U:    (2 0 0)/(-2 0 0)
End

