/*---------------------------------------------------------------------------*\
| =========                 |                                                 |
| \\      /  F ield         | OpenFOAM: The Open Source CFD Toolbox           |
|  \\    /   O peration     | Version:  4.1                                   |
|   \\  /    A nd           | Web:      www.OpenFOAM.org                      |
|    \\/     M anipulation  |                                                 |
\*---------------------------------------------------------------------------*/
Build  : 4.1
Exec   : blockMesh
Date   : Dec 25 2017
Time   : 21:19:34
Host   : "bl010.unicluster.ru"
PID    : 9906
Case   : /lustre/unicluster/home/matvey.kraposhin/run/Unicfdlab/QGD-sdev4.1/Tutorials/1D/Test2
nProcs : 1
sigFpe : Enabling floating point exception trapping (FOAM_SIGFPE).
fileModificationChecking : Monitoring run-time modified files using timeStampMaster
allowSystemOperations : Allowing user-supplied system call operations

// * * * * * * * * * * * * * * * * * * * * * * * * * * * * * * * * * * * * * //
Create time

Creating block mesh from
    "/lustre/unicluster/home/matvey.kraposhin/run/Unicfdlab/QGD-sdev4.1/Tutorials/1D/Test2/system/blockMeshDict"
Creating curved edges
Creating topology blocks
Creating topology patches

Creating block mesh topology

Check topology

	Basic statistics
		Number of internal faces : 0
		Number of boundary faces : 6
		Number of defined boundary faces : 6
		Number of undefined boundary faces : 0
	Checking patch -> block consistency

Creating block offsets
Creating merge list .

Creating polyMesh from blockMesh
Creating patches
Creating cells
Creating points with scale 1
    Block 0 cell size :
        i : 0.0003125 .. 0.0003125
        j : 0.02 .. 0.02
        k : 0.02 .. 0.02


Writing polyMesh
----------------
Mesh Information
----------------
  boundingBox: (0 -0.01 -0.01) (1 0.01 0.01)
  nPoints: 12804
  nCells: 3200
  nFaces: 16001
  nInternalFaces: 3199
----------------
Patches
----------------
  patch 0 (start: 3199 size: 2) name: sides
  patch 1 (start: 3201 size: 6400) name: empty1
  patch 2 (start: 9601 size: 6400) name: empty2

End

