/*---------------------------------------------------------------------------*\
| =========                 |                                                 |
| \\      /  F ield         | OpenFOAM: The Open Source CFD Toolbox           |
|  \\    /   O peration     | Version:  4.1                                   |
|   \\  /    A nd           | Web:      www.OpenFOAM.org                      |
|    \\/     M anipulation  |                                                 |
\*---------------------------------------------------------------------------*/
Build  : 4.1
Exec   : QGDFoam
Date   : Dec 25 2017
Time   : 21:19:35
Host   : "bl010.unicluster.ru"
PID    : 9928
Case   : /lustre/unicluster/home/matvey.kraposhin/run/Unicfdlab/QGD-sdev4.1/Tutorials/1D/Test2
nProcs : 1
sigFpe : Enabling floating point exception trapping (FOAM_SIGFPE).
fileModificationChecking : Monitoring run-time modified files using timeStampMaster
allowSystemOperations : Allowing user-supplied system call operations

// * * * * * * * * * * * * * * * * * * * * * * * * * * * * * * * * * * * * * //
Create time

Create mesh for time = 0

Reading thermophysical properties

Selecting thermodynamics package 
{
    type            hePsiQGDThermo;
    mixture         pureMixture;
    transport       const;
    thermo          hConst;
    equationOfState perfectGas;
    specie          specie;
    energy          sensibleInternalEnergy;
}



--> FOAM FATAL IO ERROR: 
keyword QGDCoeffs is undefined in dictionary "/lustre/unicluster/home/matvey.kraposhin/run/Unicfdlab/QGD-sdev4.1/Tutorials/1D/Test2/constant/thermophysicalProperties.QGD"

file: /lustre/unicluster/home/matvey.kraposhin/run/Unicfdlab/QGD-sdev4.1/Tutorials/1D/Test2/constant/thermophysicalProperties.QGD from line 50 to line 52.

    From function const Foam::entry& Foam::dictionary::lookupEntry(const Foam::word&, bool, bool) const
    in file db/dictionary/dictionary.C at line 441.

FOAM exiting

