/*---------------------------------------------------------------------------*\
| =========                 |                                                 |
| \\      /  F ield         | OpenFOAM: The Open Source CFD Toolbox           |
|  \\    /   O peration     | Version:  4.1                                   |
|   \\  /    A nd           | Web:      www.OpenFOAM.org                      |
|    \\/     M anipulation  |                                                 |
\*---------------------------------------------------------------------------*/
Build  : 4.1
Exec   : postProcess -func sampleDict
Date   : Dec 25 2017
Time   : 21:19:35
Host   : "bl010.unicluster.ru"
PID    : 9943
Case   : /lustre/unicluster/home/matvey.kraposhin/run/Unicfdlab/QGD-sdev4.1/Tutorials/1D/Test2
nProcs : 1
sigFpe : Enabling floating point exception trapping (FOAM_SIGFPE).
fileModificationChecking : Monitoring run-time modified files using timeStampMaster
allowSystemOperations : Allowing user-supplied system call operations

// * * * * * * * * * * * * * * * * * * * * * * * * * * * * * * * * * * * * * //
Create time

Create mesh for time = 0

Reading set description:
    line

Time = 0

Reading fields:
    volScalarFields: T p
    volVectorFields: U

Executing functionObjects

End

